REMARK  Name = NSC 278619#1
REMARK  11 active torsions:
REMARK  status: ('A' for Active; 'I' for Inactive)
REMARK    1  A    between atoms: CA_1  and  C_2
REMARK    2  A    between atoms: CA_1  and  CB_14
REMARK    3  A    between atoms: CA_1  and  N_15
REMARK    4  A    between atoms: N_3  and  C_4
REMARK    5  A    between atoms: C_4  and  C_5
REMARK    6  A    between atoms: C_4  and  C_7
REMARK    7  A    between atoms: C_5  and  O_6
REMARK    8  A    between atoms: C_7  and  C_8
REMARK    9  A    between atoms: C_7  and  O_12
REMARK   10  A    between atoms: C_8  and  N_9
REMARK   11  A    between atoms: C_8  and  C_10
REMARK                            x       y       z     vdW  Elec       q    Type
REMARK                         _______ _______ _______ _____ _____    ______ ____
ROOT
ATOM      5  C   UNK A   2       1.306   6.361   0.000  0.00  0.00    +0.129 C 
ENDROOT
BRANCH   5   3
ATOM      2  C   ALA A   1      -0.944   5.061   0.000  0.00  0.00    +0.230 C 
ATOM      3  N   UNK A   2       0.556   5.061   0.000  0.00  0.00    -0.306 N 
ATOM      4  H   UNK A   2       1.049   4.209   0.000  0.00  0.00    +0.149 HD
ATOM     18  O   ALA A   1      -1.694   6.361   0.000  0.00  0.00    -0.274 OA
BRANCH   2   1
ATOM      1  CA  ALA A   1      -1.694   3.763   0.000  0.00  0.00    +0.135 C 
ATOM     19  CB  ALA A   1      -3.194   3.763   0.000  0.00  0.00    +0.033 C 
BRANCH   1  20
ATOM     20  N   ALA A   1      -1.694   2.263   0.000  0.00  0.00    -0.320 NA
ATOM     21  H1  ALA A   1      -0.810   1.753   0.000  0.00  0.00    +0.119 HD
ATOM     22  H2  ALA A   1      -2.577   1.753   0.000  0.00  0.00    +0.119 HD
ENDBRANCH   1  20
ENDBRANCH   2   1
ENDBRANCH   5   3
BRANCH   5   6
ATOM      6  C   UNK A   2       2.806   6.361   0.000  0.00  0.00    +0.180 C 
BRANCH   6   7
ATOM      7  O   UNK A   2       3.556   7.660   0.000  0.00  0.00    -0.393 OA
ATOM      8  H   UNK A   2       4.526   7.660   0.000  0.00  0.00    +0.209 HD
ENDBRANCH   6   7
ENDBRANCH   5   6
BRANCH   5   9
ATOM      9  C   UNK A   2       0.556   7.660   0.000  0.00  0.00    +0.160 C 
BRANCH   9  16
ATOM     16  O   UNK A   2      -0.944   7.660   0.000  0.00  0.00    -0.388 OA
ATOM     17  H   UNK A   2      -1.429   8.500   0.000  0.00  0.00    +0.210 HD
ENDBRANCH   9  16
BRANCH   9  10
ATOM     10  C   UNK A   2       1.306   8.959   0.000  0.00  0.00    +0.145 C 
BRANCH  10  11
ATOM     11  N   ALA A   1       2.806   8.959   0.000  0.00  0.00    -0.319 NA
ATOM     12  H1  ALA A   1       3.316   9.842   0.000  0.00  0.00    +0.119 HD
ATOM     13  H2  ALA A   1       3.316   8.075   0.000  0.00  0.00    +0.119 HD
ENDBRANCH  10  11
BRANCH  10  14
ATOM     14  C   ALA A   1       0.556  10.258   0.000  0.00  0.00    +0.244 C 
ATOM     15  O   ALA A   1      -0.944  10.258   0.000  0.00  0.00    -0.299 OA
ENDBRANCH  10  14
ENDBRANCH   9  10
ENDBRANCH   5   9
TORSDOF 10