REMARK  Name = NSC 265450
REMARK  20 active torsions:
REMARK  status: ('A' for Active; 'I' for Inactive)
REMARK    1  A    between atoms: C_1  and  C_2
REMARK    2  A    between atoms: C_5  and  O_6
REMARK    3  A    between atoms: C_10  and  O_11
REMARK    4  A    between atoms: C_13  and  O_19
REMARK    5  A    between atoms: C_15  and  O_16
REMARK    6  A    between atoms: C_15  and  C_17
REMARK    7  A    between atoms: O_19  and  C_20
REMARK    8  A    between atoms: C_21  and  O_22
REMARK    9  A    between atoms: O_22  and  C_23
REMARK   10  A    between atoms: C_24  and  O_25
REMARK   11  A    between atoms: C_24  and  C_27
REMARK   12  A    between atoms: O_25  and  C_26
REMARK   13  A    between atoms: C_28  and  O_29
REMARK   14  A    between atoms: O_29  and  C_30
REMARK   15  A    between atoms: C_31  and  C_32
REMARK   16  A    between atoms: C_44  and  O_45
REMARK   17  A    between atoms: C_46  and  N_47
REMARK   18  A    between atoms: N_47  and  C_48
REMARK   19  A    between atoms: N_47  and  C_49
REMARK   20  A    between atoms: C_50  and  O_51
REMARK                            x       y       z     vdW  Elec       q    Type
REMARK                         _______ _______ _______ _____ _____    ______ ____
ROOT
ATOM      1  C   UNL     1       6.221   0.275   0.000  0.00  0.00    +0.126 C 
ATOM      2  C   UNL     1       5.471  -1.025   0.000  0.00  0.00    +0.050 C 
ATOM      3  C   UNL     1       7.520  -0.475   0.000  0.00  0.00    +0.033 A 
ATOM      4  C   UNL     1       7.520  -1.976   0.000  0.00  0.00    +0.056 A 
ATOM      5  C   UNL     1       8.819  -2.725   0.000  0.00  0.00    +0.129 A 
ATOM      8  C   UNL     1      10.118  -1.976   0.000  0.00  0.00    +0.078 A 
ATOM      9  C   UNL     1      11.417  -2.725   0.000  0.00  0.00    +0.202 C 
ATOM     10  C   UNL     1      12.716  -1.976   0.000  0.00  0.00    +0.075 A 
ATOM     11  C   UNL     1      14.015  -2.725   0.000  0.00  0.00    +0.134 A 
ATOM     14  C   UNL     1      15.314  -1.976   0.000  0.00  0.00    +0.027 A 
ATOM     15  C   UNL     1      16.613  -2.725   0.000  0.00  0.00    +0.158 C 
ATOM     16  C   UNL     1      17.912  -1.976   0.000  0.00  0.00    +0.071 C 
ATOM     17  C   UNL     1      17.912  -0.475   0.000  0.00  0.00    +0.070 C 
ATOM     20  C   UNL     1      18.425   0.934   0.000  0.00  0.00    +0.042 C 
ATOM     21  C   UNL     1      16.613   0.275   0.000  0.00  0.00    +0.070 C 
ATOM     37  C   UNL     1      15.314  -0.475   0.000  0.00  0.00    -0.035 A 
ATOM     38  C   UNL     1      14.015   0.275   0.000  0.00  0.00    +0.016 A 
ATOM     39  C   UNL     1      12.716  -0.475   0.000  0.00  0.00    +0.037 A 
ATOM     40  C   UNL     1      11.417   0.275   0.000  0.00  0.00    +0.198 C 
ATOM     41  O   UNL     1      11.417   1.775   0.000  0.00  0.00    -0.286 OA
ATOM     42  O   UNL     1      11.417  -4.226   0.000  0.00  0.00    -0.286 OA
ATOM     43  C   UNL     1      10.118  -0.475   0.000  0.00  0.00    +0.079 A 
ATOM     44  C   UNL     1       8.819   0.275   0.000  0.00  0.00    +0.142 A 
ATOM     45  O   UNL     1       8.819   1.775   0.000  0.00  0.00    -0.460 OA
ATOM     46  C   UNL     1       7.520   2.525   0.000  0.00  0.00    +0.339 C 
ATOM     47  C   UNL     1       6.221   3.275   0.000  0.00  0.00    +0.202 C 
ATOM     50  C   UNL     1       4.922   2.525   0.000  0.00  0.00    +0.123 C 
ATOM     54  C   UNL     1       4.922   1.025   0.000  0.00  0.00    +0.170 C 
ATOM     57  O   UNL     1       6.221   1.775   0.000  0.00  0.00    -0.326 OA
ENDROOT
BRANCH  50  51
ATOM     51  N   UNL     1       3.623   3.275   0.000  0.00  0.00    -0.301 NA
ATOM     52  C   UNL     1       3.623   4.774   0.000  0.00  0.00    +0.105 C 
ATOM     53  C   UNL     1       2.324   2.525   0.000  0.00  0.00    +0.105 C 
ENDBRANCH  50  51
BRANCH   5   6
ATOM      6  O   UNL     1       8.819  -4.226   0.000  0.00  0.00    -0.506 OA
ATOM      7  H   UNL     1       8.007  -4.694   0.000  0.00  0.00    +0.292 HD
ENDBRANCH   5   6
BRANCH  11  12
ATOM     12  O   UNL     1      14.015  -4.226   0.000  0.00  0.00    -0.506 OA
ATOM     13  H   UNL     1      13.203  -4.694   0.000  0.00  0.00    +0.292 HD
ENDBRANCH  11  12
BRANCH  17  18
ATOM     18  O   UNL     1      19.389  -0.736   0.000  0.00  0.00    -0.388 OA
ATOM     19  H   UNL     1      19.721  -1.648   0.000  0.00  0.00    +0.210 HD
ENDBRANCH  17  18
BRANCH  47  48
ATOM     48  O   UNL     1       6.221   4.774   0.000  0.00  0.00    -0.384 OA
ATOM     49  H   UNL     1       7.061   5.260   0.000  0.00  0.00    +0.210 HD
ENDBRANCH  47  48
BRANCH  54  55
ATOM     55  O   UNL     1       3.623   0.275   0.000  0.00  0.00    -0.387 OA
ATOM     56  H   UNL     1       2.783   0.759   0.000  0.00  0.00    +0.210 HD
ENDBRANCH  54  55
BRANCH  15  22
ATOM     22  O   UNL     1      16.613  -4.226   0.000  0.00  0.00    -0.341 OA
BRANCH  22  23
ATOM     23  C   UNL     1      17.912  -4.976   0.000  0.00  0.00    +0.283 C 
ATOM     24  C   UNL     1      19.211  -4.226   0.000  0.00  0.00    +0.208 C 
ATOM     27  C   UNL     1      20.510  -4.976   0.000  0.00  0.00    +0.125 C 
ATOM     30  C   UNL     1      19.211  -5.726   0.000  0.00  0.00    +0.047 C 
ATOM     31  C   UNL     1      20.510  -6.476   0.000  0.00  0.00    +0.180 C 
ATOM     34  C   UNL     1      19.211  -7.226   0.000  0.00  0.00    +0.150 C 
ATOM     35  C   UNL     1      19.211  -5.726   0.000  0.00  0.00    +0.041 C 
ATOM     36  O   UNL     1      17.912  -6.476   0.000  0.00  0.00    -0.343 OA
BRANCH  24  25
ATOM     25  O   UNL     1      19.211  -2.725   0.000  0.00  0.00    -0.372 OA
ATOM     26  C   UNL     1      20.510  -1.976   0.000  0.00  0.00    +0.194 C 
ENDBRANCH  24  25
BRANCH  27  28
ATOM     28  O   UNL     1      21.809  -4.226   0.000  0.00  0.00    -0.371 OA
ATOM     29  C   UNL     1      23.108  -4.976   0.000  0.00  0.00    +0.195 C 
ENDBRANCH  27  28
BRANCH  31  32
ATOM     32  O   UNL     1      21.809  -7.226   0.000  0.00  0.00    -0.374 OA
ATOM     33  C   UNL     1      23.108  -6.476   0.000  0.00  0.00    +0.194 C 
ENDBRANCH  31  32
ENDBRANCH  22  23
ENDBRANCH  15  22
TORSDOF 11