REMARK  Name = NSC 269754
REMARK  8 active torsions:
REMARK  status: ('A' for Active; 'I' for Inactive)
REMARK    1  A    between atoms: C_1  and  C_2
REMARK    2  A    between atoms: C_10  and  C_23
REMARK    3  A    between atoms: C_13  and  O_14
REMARK    4  A    between atoms: C_16  and  C_17
REMARK    5  A    between atoms: C_23  and  O_24
REMARK    6  A    between atoms: C_23  and  C_26
REMARK    7  A    between atoms: C_33  and  C_38
REMARK    8  A    between atoms: C_34  and  O_35
REMARK                            x       y       z     vdW  Elec       q    Type
REMARK                         _______ _______ _______ _____ _____    ______ ____
ROOT
ATOM      1  C   UNL     1      15.459  -3.729   0.000  0.00  0.00    +0.019 C 
ATOM      2  C   UNL     1      14.220  -4.574   0.000  0.00  0.00    +0.050 C 
ATOM      3  C   UNL     1      14.220  -3.074   0.000  0.00  0.00    +0.189 C 
ATOM      4  O   UNL     1      12.600  -2.543   0.000  0.00  0.00    -0.458 OA
ATOM      5  C   UNL     1      12.377  -1.060   0.000  0.00  0.00    +0.332 C 
ATOM      6  C   UNL     1      10.980  -0.512   0.000  0.00  0.00    +0.091 C 
ATOM      7  C   UNL     1      10.757   0.971   0.000  0.00  0.00    +0.007 C 
ATOM      8  C   UNL     1       9.360   1.519   0.000  0.00  0.00    -0.001 C 
ATOM      9  C   UNL     1       8.188   0.584   0.000  0.00  0.00    +0.007 C 
ATOM     10  C   UNL     1       6.791   1.132   0.000  0.00  0.00    +0.169 C 
ATOM     11  O   UNL     1       5.619   0.197   0.000  0.00  0.00    -0.367 OA
ATOM     12  C   UNL     1       5.842  -1.286   0.000  0.00  0.00    +0.192 C 
ATOM     13  C   UNL     1       7.239  -1.834   0.000  0.00  0.00    +0.143 C 
ATOM     16  C   UNL     1       7.462  -3.317   0.000  0.00  0.00    +0.027 C 
ATOM     17  C   UNL     1       6.289  -4.253   0.000  0.00  0.00    +0.011 C 
ATOM     18  C   UNL     1       8.858  -3.865   0.000  0.00  0.00    +0.126 C 
ATOM     19  C   UNL     1       9.082  -5.349   0.000  0.00  0.00    +0.307 C 
ATOM     20  O   UNL     1       7.909  -6.284   0.000  0.00  0.00    -0.251 OA
ATOM     21  O   UNL     1      10.478  -5.897   0.000  0.00  0.00    -0.464 OA
ATOM     22  C   UNL     1      11.651  -4.962   0.000  0.00  0.00    +0.242 C 
ATOM     27  O   UNL     1      13.549  -0.125   0.000  0.00  0.00    -0.246 OA
ATOM     28  C   UNL     1      15.682  -3.408   0.000  0.00  0.00    +0.080 C 
ATOM     29  C   UNL     1      15.840  -6.606   0.000  0.00  0.00    +0.157 C 
ATOM     30  O   UNL     1      14.667  -7.541   0.000  0.00  0.00    -0.366 OA
ATOM     31  C   UNL     1      13.271  -6.993   0.000  0.00  0.00    +0.152 C 
ATOM     32  C   UNL     1      12.098  -7.928   0.000  0.00  0.00    +0.006 C 
ATOM     33  C   UNL     1      10.702  -7.380   0.000  0.00  0.00    -0.046 C 
ATOM     34  C   UNL     1      10.739  -5.880   0.000  0.00  0.00    +0.141 C 
ATOM     37  C   UNL     1      12.057  -5.163   0.000  0.00  0.00    +0.049 C 
ATOM     38  C   UNL     1       9.452  -8.210   0.000  0.00  0.00    +0.041 C 
ATOM     39  C   UNL     1      13.047  -5.510   0.000  0.00  0.00    +0.049 C 
ATOM     40  C   UNL     1      16.133  -4.710   0.000  0.00  0.00    +0.128 C 
ATOM     41  O   UNL     1      17.723  -4.402   0.000  0.00  0.00    -0.365 OA
ATOM     42  C   UNL     1      16.788  -3.229   0.000  0.00  0.00    +0.199 C 
ENDROOT
BRANCH  13  14
ATOM     14  O   UNL     1       8.411  -0.899   0.000  0.00  0.00    -0.389 OA
ATOM     15  H   UNL     1       9.808  -1.447   0.000  0.00  0.00    +0.210 HD
ENDBRANCH  13  14
BRANCH  10  23
ATOM     23  C   UNL     1       6.568   2.615   0.000  0.00  0.00    +0.144 C 
ATOM     26  C   UNL     1       7.740   3.551   0.000  0.00  0.00    +0.040 C 
BRANCH  23  24
ATOM     24  O   UNL     1       5.172   3.164   0.000  0.00  0.00    -0.389 OA
ATOM     25  H   UNL     1       4.948   4.647   0.000  0.00  0.00    +0.210 HD
ENDBRANCH  23  24
ENDBRANCH  10  23
BRANCH  34  35
ATOM     35  O   UNL     1       9.459  -5.098   0.000  0.00  0.00    -0.387 OA
ATOM     36  H   UNL     1       8.142  -5.816   0.000  0.00  0.00    +0.210 HD
ENDBRANCH  34  35
TORSDOF 4