REMARK  Name = NSC 266535
REMARK  4 active torsions:
REMARK  status: ('A' for Active; 'I' for Inactive)
REMARK    1  A    between atoms: C_13  and  O_14
REMARK    2  A    between atoms: C_16  and  O_17
REMARK    3  A    between atoms: C_18  and  O_19
REMARK    4  A    between atoms: C_21  and  O_22
REMARK                            x       y       z     vdW  Elec       q    Type
REMARK                         _______ _______ _______ _____ _____    ______ ____
ROOT
ATOM      1  O   UNL     1      -2.873 -10.025   0.000  0.00  0.00    -0.270 OA
ATOM      2  C   UNL     1      -2.873  -8.524   0.000  0.00  0.00    +0.249 C 
ATOM      3  N   UNL     1      -1.574  -7.774   0.000  0.00  0.00    -0.302 N 
ATOM      4  H   UNL     1      -0.721  -8.267   0.000  0.00  0.00    +0.150 HD
ATOM      5  C   UNL     1      -1.574  -6.274   0.000  0.00  0.00    +0.135 C 
ATOM      6  C   UNL     1      -2.873  -5.524   0.000  0.00  0.00    -0.018 C 
ATOM      7  C   UNL     1      -4.172  -6.274   0.000  0.00  0.00    -0.001 A 
ATOM      8  C   UNL     1      -5.471  -5.524   0.000  0.00  0.00    +0.058 A 
ATOM      9  C   UNL     1      -6.770  -6.274   0.000  0.00  0.00    +0.170 A 
ATOM     10  O   UNL     1      -8.196  -5.811   0.000  0.00  0.00    -0.452 OA
ATOM     11  C   UNL     1      -9.078  -7.024   0.000  0.00  0.00    +0.467 C 
ATOM     12  O   UNL     1      -8.196  -8.238   0.000  0.00  0.00    -0.449 OA
ATOM     13  C   UNL     1      -6.770  -7.774   0.000  0.00  0.00    +0.208 A 
ATOM     14  C   UNL     1      -5.471  -8.524   0.000  0.00  0.00    +0.175 A 
ATOM     17  C   UNL     1      -2.873  -4.024   0.000  0.00  0.00    +0.012 C 
ATOM     18  C   UNL     1      -1.574  -3.275   0.000  0.00  0.00    +0.169 C 
ATOM     21  C   UNL     1      -0.275  -4.024   0.000  0.00  0.00    +0.177 C 
ATOM     24  C   UNL     1      -0.275  -5.524   0.000  0.00  0.00    +0.170 C 
ATOM     27  C   UNL     1      -4.172  -7.774   0.000  0.00  0.00    +0.089 A 
ENDROOT
BRANCH  14  15
ATOM     15  O   UNL     1      -5.471 -10.025   0.000  0.00  0.00    -0.503 OA
ATOM     16  H   UNL     1      -6.282 -10.493   0.000  0.00  0.00    +0.292 HD
ENDBRANCH  14  15
BRANCH  18  19
ATOM     19  O   UNL     1      -1.574  -1.775   0.000  0.00  0.00    -0.385 OA
ATOM     20  H   UNL     1      -0.734  -1.289   0.000  0.00  0.00    +0.210 HD
ENDBRANCH  18  19
BRANCH  21  22
ATOM     22  O   UNL     1       1.025  -3.275   0.000  0.00  0.00    -0.386 OA
ATOM     23  H   UNL     1       1.865  -3.759   0.000  0.00  0.00    +0.210 HD
ENDBRANCH  21  22
BRANCH  24  25
ATOM     25  O   UNL     1       1.025  -6.274   0.000  0.00  0.00    -0.387 OA
ATOM     26  H   UNL     1       1.024  -7.244   0.000  0.00  0.00    +0.210 HD
ENDBRANCH  24  25
TORSDOF 4