REMARK  Name = NSC 283445
REMARK  4 active torsions:
REMARK  status: ('A' for Active; 'I' for Inactive)
REMARK    1  A    between atoms: C_3  and  O_4
REMARK    2  A    between atoms: C_5  and  C_6
REMARK    3  A    between atoms: C_19  and  C_20
REMARK    4  A    between atoms: C_30  and  C_31
REMARK                            x       y       z     vdW  Elec       q    Type
REMARK                         _______ _______ _______ _____ _____    ______ ____
ROOT
ATOM      1  O   UNL     1       2.663   4.362   0.000  0.00  0.00    -0.248 OA
ATOM      2  C   UNL     1       3.684   3.262   0.000  0.00  0.00    +0.336 C 
ATOM      3  C   UNL     1       3.241   1.829   0.000  0.00  0.00    +0.225 C 
ATOM      6  C   UNL     1       4.262   0.729   0.000  0.00  0.00    +0.029 C 
ATOM      7  C   UNL     1       3.820  -0.704   0.000  0.00  0.00    +0.011 C 
ATOM      8  C   UNL     1       5.724   1.063   0.000  0.00  0.00    +0.047 C 
ATOM      9  C   UNL     1       6.744  -0.037   0.000  0.00  0.00    +0.233 C 
ATOM     10  O   UNL     1       8.207   0.297   0.000  0.00  0.00    -0.462 OA
ATOM     11  C   UNL     1       9.227  -0.802   0.000  0.00  0.00    +0.332 C 
ATOM     12  C   UNL     1      10.689  -0.469   0.000  0.00  0.00    +0.091 C 
ATOM     13  C   UNL     1      11.710  -1.568   0.000  0.00  0.00    +0.007 C 
ATOM     14  C   UNL     1      13.172  -1.234   0.000  0.00  0.00    +0.007 C 
ATOM     15  C   UNL     1      13.614   0.199   0.000  0.00  0.00    +0.091 C 
ATOM     16  C   UNL     1      12.594   1.299   0.000  0.00  0.00    +0.332 C 
ATOM     17  O   UNL     1      13.036   2.732   0.000  0.00  0.00    -0.246 OA
ATOM     18  O   UNL     1      11.132   0.965   0.000  0.00  0.00    -0.458 OA
ATOM     19  C   UNL     1      10.111   2.064   0.000  0.00  0.00    +0.189 C 
ATOM     20  C   UNL     1       8.649   1.730   0.000  0.00  0.00    +0.050 C 
ATOM     21  C   UNL     1       8.315   0.268   0.000  0.00  0.00    +0.019 C 
ATOM     22  C   UNL     1       7.354   4.225   0.000  0.00  0.00    +0.128 C 
ATOM     23  C   UNL     1       7.180   5.835   0.000  0.00  0.00    +0.199 C 
ATOM     24  C   UNL     1      10.111   4.767   0.000  0.00  0.00    +0.157 C 
ATOM     25  O   UNL     1       8.649   5.101   0.000  0.00  0.00    -0.367 OA
ATOM     26  C   UNL     1       7.476   4.166   0.000  0.00  0.00    +0.160 C 
ATOM     27  C   UNL     1       6.177   4.916   0.000  0.00  0.00    +0.180 C 
ATOM     28  O   UNL     1       4.878   5.666   0.000  0.00  0.00    -0.362 OA
ATOM     29  C   UNL     1       4.878   4.166   0.000  0.00  0.00    +0.096 C 
ATOM     30  C   UNL     1       3.378   4.166   0.000  0.00  0.00    +0.044 C 
ATOM     31  C   UNL     1       4.878   2.666   0.000  0.00  0.00    +0.038 C 
ATOM     32  C   UNL     1       6.177   1.916   0.000  0.00  0.00    +0.016 C 
ATOM     33  O   UNL     1       8.576   5.287   0.000  0.00  0.00    -0.365 OA
ATOM     34  C   UNL     1       7.476   2.666   0.000  0.00  0.00    +0.045 C 
ATOM     35  C   UNL     1       6.166   2.496   0.000  0.00  0.00    +0.242 C 
ATOM     36  C   UNL     1      10.762   3.416   0.000  0.00  0.00    +0.080 C 
ATOM     37  O   UNL     1       8.785  -2.236   0.000  0.00  0.00    -0.246 OA
ATOM     38  O   UNL     1       5.146   3.596   0.000  0.00  0.00    -0.462 OA
ENDROOT
BRANCH   3   4
ATOM      4  O   UNL     1       1.779   1.495   0.000  0.00  0.00    -0.380 OA
ATOM      5  H   UNL     1       1.119   2.206   0.000  0.00  0.00    +0.211 HD
ENDBRANCH   3   4
TORSDOF 1