REMARK  Name = NSC 284437
REMARK  2 active torsions:
REMARK  status: ('A' for Active; 'I' for Inactive)
REMARK    1  A    between atoms: C_7  and  C_8
REMARK    2  A    between atoms: C_7  and  C_9
REMARK                            x       y       z     vdW  Elec       q    Type
REMARK                         _______ _______ _______ _____ _____    ______ ____
ROOT
ATOM      1  O   UNL     1      -2.130  -6.651   0.000  0.00  0.00    -0.297 OA
ATOM      2  C   UNL     1      -2.815  -5.317   0.000  0.00  0.00    +0.140 C 
ATOM      3  C   UNL     1      -2.045  -4.029   0.000  0.00  0.00    +0.079 C 
ATOM      4  C   UNL     1      -3.089  -2.953   0.000  0.00  0.00    +0.007 C 
ATOM      5  C   UNL     1      -4.399  -3.683   0.000  0.00  0.00    +0.000 C 
ATOM      6  C   UNL     1      -2.957  -4.093   0.000  0.00  0.00    +0.015 C 
ATOM      7  C   UNL     1      -2.187  -2.806   0.000  0.00  0.00    -0.031 C 
ATOM      8  C   UNL     1      -1.067  -1.808   0.000  0.00  0.00    +0.011 C 
ATOM      9  C   UNL     1      -1.031  -3.762   0.000  0.00  0.00    +0.011 C 
ATOM     10  C   UNL     1      -5.687  -2.913   0.000  0.00  0.00    +0.105 C 
ATOM     11  C   UNL     1      -6.997  -3.642   0.000  0.00  0.00    +0.311 C 
ATOM     12  O   UNL     1      -7.020  -5.142   0.000  0.00  0.00    -0.464 OA
ATOM     13  C   UNL     1      -5.733  -5.912   0.000  0.00  0.00    +0.243 C 
ATOM     14  O   UNL     1      -8.284  -2.872   0.000  0.00  0.00    -0.251 OA
ATOM     15  C   UNL     1      -5.664  -1.413   0.000  0.00  0.00    +0.015 C 
ATOM     16  C   UNL     1      -4.353  -0.683   0.000  0.00  0.00    +0.005 C 
ATOM     17  C   UNL     1      -3.066  -1.453   0.000  0.00  0.00    -0.001 C 
ATOM     18  C   UNL     1      -4.423  -5.182   0.000  0.00  0.00    +0.100 C 
ENDROOT
TORSDOF 0