REMARK  Name = NSC 287088
REMARK  4 active torsions:
REMARK  status: ('A' for Active; 'I' for Inactive)
REMARK    1  A    between atoms: C_1  and  C_2
REMARK    2  A    between atoms: C_5  and  O_34
REMARK    3  A    between atoms: C_9  and  C_18
REMARK    4  A    between atoms: C_24  and  C_31
REMARK                            x       y       z     vdW  Elec       q    Type
REMARK                         _______ _______ _______ _____ _____    ______ ____
ROOT
ATOM      1  C   UNL     1       2.088   2.219   0.000  0.00  0.00    +0.063 C 
ATOM      2  C   UNL     1       1.222   1.719   0.000  0.00  0.00    +0.180 C 
ATOM      3  O   UNL     1       2.194   1.510   0.000  0.00  0.00    -0.449 OA
ATOM      4  C   UNL     1       2.114   0.704   0.000  0.00  0.00    +0.343 C 
ATOM      5  C   UNL     1       1.024   0.482   0.000  0.00  0.00    +0.196 C 
ATOM      6  C   UNL     1       1.369  -0.440   0.000  0.00  0.00    +0.050 C 
ATOM      7  C   UNL     1       0.882  -1.295   0.000  0.00  0.00    +0.009 C 
ATOM      8  C   UNL     1      -0.086  -1.471   0.000  0.00  0.00    +0.015 C 
ATOM      9  C   UNL     1      -0.246  -2.483   0.000  0.00  0.00    +0.055 C 
ATOM     10  C   UNL     1       0.483  -3.113   0.000  0.00  0.00    +0.166 C 
ATOM     11  C   UNL     1       0.314  -4.061   0.000  0.00  0.00    +0.043 C 
ATOM     12  C   UNL     1      -0.588  -4.400   0.000  0.00  0.00    -0.019 C 
ATOM     13  C   UNL     1      -1.340  -3.797   0.000  0.00  0.00    +0.058 C 
ATOM     14  O   UNL     1       1.426  -2.779   0.000  0.00  0.00    -0.292 OA
ATOM     15  C   UNL     1      -1.206  -2.844   0.000  0.00  0.00    -0.056 C 
ATOM     16  C   UNL     1      -1.992  -2.187   0.000  0.00  0.00    -0.026 C 
ATOM     17  C   UNL     1      -1.809  -1.178   0.000  0.00  0.00    +0.036 C 
ATOM     18  C   UNL     1       0.690  -2.132   0.000  0.00  0.00    +0.024 C 
ATOM     19  C   UNL     1      -0.841  -0.840   0.000  0.00  0.00    +0.064 C 
ATOM     20  C   UNL     1      -0.842   0.144   0.000  0.00  0.00    +0.235 C 
ATOM     21  C   UNL     1      -1.247   1.052   0.000  0.00  0.00    +0.199 C 
ATOM     22  O   UNL     1      -2.237   0.911   0.000  0.00  0.00    -0.291 OA
ATOM     23  C   UNL     1      -0.510   1.719   0.000  0.00  0.00    +0.107 C 
ATOM     24  C   UNL     1      -0.510   2.719   0.000  0.00  0.00    -0.001 C 
ATOM     25  C   UNL     1       0.356   3.219   0.000  0.00  0.00    +0.057 C 
ATOM     26  C   UNL     1      -1.483   2.470   0.000  0.00  0.00    +0.130 C 
ATOM     27  C   UNL     1      -0.581   2.042   0.000  0.00  0.00    +0.313 C 
ATOM     28  O   UNL     1      -0.408   1.057   0.000  0.00  0.00    -0.250 OA
ATOM     29  O   UNL     1       0.413   2.133   0.000  0.00  0.00    -0.457 OA
ATOM     30  C   UNL     1      -1.988   1.601   0.000  0.00  0.00    +0.179 C 
ATOM     31  C   UNL     1      -0.240   3.682   0.000  0.00  0.00    +0.013 C 
ATOM     32  O   UNL     1      -1.720   0.632   0.000  0.00  0.00    -0.342 OA
ATOM     33  O   UNL     1       0.147   0.247   0.000  0.00  0.00    -0.327 OA
ATOM     36  O   UNL     1       2.857   0.035   0.000  0.00  0.00    -0.247 OA
ATOM     37  C   UNL     1       1.222   2.719   0.000  0.00  0.00    +0.223 C 
ATOM     38  C   UNL     1       0.356   1.219   0.000  0.00  0.00    +0.165 C 
ENDROOT
BRANCH   5  34
ATOM     34  O   UNL     1       0.401  -0.301   0.000  0.00  0.00    -0.375 OA
ATOM     35  H   UNL     1       0.310  -0.914   0.000  0.00  0.00    +0.211 HD
ENDBRANCH   5  34
TORSDOF 1