REMARK  Name = NSC 27425
REMARK  7 active torsions:
REMARK  status: ('A' for Active; 'I' for Inactive)
REMARK    1  A    between atoms: N_3  and  C_4
REMARK    2  A    between atoms: C_4  and  C_5
REMARK    3  A    between atoms: C_5  and  C_6
REMARK    4  A    between atoms: C_6  and  CA_7
REMARK    5  A    between atoms: CA_7  and  N_8
REMARK    6  A    between atoms: CA_7  and  C_9
REMARK    7  A    between atoms: C_9  and  OXT_10
REMARK                            x       y       z     vdW  Elec       q    Type
REMARK                         _______ _______ _______ _____ _____    ______ ____
ROOT
ATOM      8  C   UNL     1       0.111  -0.057   0.000  0.00  0.00    +0.021 C 
ENDROOT
BRANCH   8   7
ATOM      7  C   UNL     1      -1.150  -0.869   0.000  0.00  0.00    +0.106 C 
BRANCH   7   5
ATOM      1  N   UNL     1      -5.079  -0.309   0.000  0.00  0.00    -0.313 N 
ATOM      2  H   UNL     1      -5.907  -0.842   0.000  0.00  0.00    +0.146 HD
ATOM      3  H   UNL     1      -5.127   0.675   0.000  0.00  0.00    +0.146 HD
ATOM      4  C   UNL     1      -3.745  -0.995   0.000  0.00  0.00    +0.297 C 
ATOM      5  N   UNL     1      -2.484  -0.183   0.000  0.00  0.00    -0.300 N 
ATOM      6  H   UNL     1      -2.532   0.800   0.000  0.00  0.00    +0.150 HD
ATOM     18  O   UNL     1      -3.672  -2.493   0.000  0.00  0.00    -0.253 OA
ENDBRANCH   7   5
ENDBRANCH   8   7
BRANCH   8   9
ATOM      9  C   UNL     1       1.445  -0.743   0.000  0.00  0.00    +0.031 C 
BRANCH   9  10
ATOM     10  CA  UNL     1       2.706   0.069   0.000  0.00  0.00    +0.161 C 
BRANCH  10  11
ATOM     11  N   UNL     1       4.040  -0.618   0.000  0.00  0.00    -0.318 NA
ATOM     12  H1  UNL     1       4.898  -0.065   0.000  0.00  0.00    +0.119 HD
ATOM     13  H2  UNL     1       4.089  -1.636   0.000  0.00  0.00    +0.119 HD
ENDBRANCH  10  11
BRANCH  10  14
ATOM     14  C   UNL     1       2.634   1.567   0.000  0.00  0.00    +0.322 C 
ATOM     17  O   UNL     1       1.300   2.253   0.000  0.00  0.00    -0.249 OA
BRANCH  14  15
ATOM     15  OXT UNL     1       3.895   2.379   0.000  0.00  0.00    -0.480 OA
ATOM     16  HXT UNL     1       4.728   1.950   0.000  0.00  0.00    +0.295 HD
ENDBRANCH  14  15
ENDBRANCH  10  14
ENDBRANCH   9  10
ENDBRANCH   8   9
TORSDOF 7