REMARK  Name = NSC 2952
REMARK  7 active torsions:
REMARK  status: ('A' for Active; 'I' for Inactive)
REMARK    1  A    between atoms: C_3  and  C_4
REMARK    2  A    between atoms: C_3  and  C_5
REMARK    3  A    between atoms: C_5  and  O_6
REMARK    4  A    between atoms: C_17  and  C_18
REMARK    5  A    between atoms: C_18  and  C_19
REMARK    6  A    between atoms: C_18  and  C_20
REMARK    7  A    between atoms: C_22  and  C_23
REMARK                            x       y       z     vdW  Elec       q    Type
REMARK                         _______ _______ _______ _____ _____    ______ ____
ROOT
ATOM      1  C   UNL     1      -5.471  -7.024   0.000  0.00  0.00    +0.016 C 
ATOM      2  C   UNL     1      -6.770  -7.774   0.000  0.00  0.00    +0.068 C 
ATOM      3  C   UNL     1      -6.020  -9.074   0.000  0.00  0.00    +0.023 C 
ATOM      8  C   UNL     1      -8.069  -7.024   0.000  0.00  0.00    +0.018 C 
ATOM      9  C   UNL     1      -8.069  -5.524   0.000  0.00  0.00    +0.002 C 
ATOM     10  C   UNL     1      -6.770  -4.774   0.000  0.00  0.00    +0.011 C 
ATOM     11  C   UNL     1      -4.172  -7.774   0.000  0.00  0.00    +0.010 C 
ATOM     12  C   UNL     1      -2.873  -7.024   0.000  0.00  0.00    +0.036 C 
ATOM     13  C   UNL     1      -2.873  -5.524   0.000  0.00  0.00    -0.043 A 
ATOM     14  C   UNL     1      -4.172  -4.774   0.000  0.00  0.00    -0.038 A 
ATOM     15  C   UNL     1      -4.172  -3.275   0.000  0.00  0.00    +0.005 A 
ATOM     16  C   UNL     1      -2.873  -2.525   0.000  0.00  0.00    +0.004 A 
ATOM     17  C   UNL     1      -1.574  -3.275   0.000  0.00  0.00    -0.045 A 
ATOM     21  C   UNL     1      -1.574  -4.774   0.000  0.00  0.00    +0.007 A 
ATOM     22  C   UNL     1      -5.471  -5.524   0.000  0.00  0.00    -0.003 C 
ATOM     23  C   UNL     1      -5.471  -4.024   0.000  0.00  0.00    +0.016 C 
ENDROOT
BRANCH  17  18
ATOM     18  C   UNL     1      -0.275  -2.525   0.000  0.00  0.00    +0.013 C 
ATOM     19  C   UNL     1      -0.275  -1.025   0.000  0.00  0.00    +0.012 C 
ATOM     20  C   UNL     1       1.025  -3.275   0.000  0.00  0.00    +0.012 C 
ENDBRANCH  17  18
BRANCH   2   4
ATOM      4  C   UNL     1      -7.734  -8.924   0.000  0.00  0.00    +0.311 C 
ATOM      7  O   UNL     1      -9.211  -8.663   0.000  0.00  0.00    -0.250 OA
BRANCH   4   5
ATOM      5  O   UNL     1      -7.221 -10.333   0.000  0.00  0.00    -0.480 OA
ATOM      6  H   UNL     1      -7.823 -11.051   0.000  0.00  0.00    +0.295 HD
ENDBRANCH   4   5
ENDBRANCH   2   4
TORSDOF 3