REMARK  Name = NSC 295426
REMARK  9 active torsions:
REMARK  status: ('A' for Active; 'I' for Inactive)
REMARK    1  A    between atoms: C_3  and  C_4
REMARK    2  A    between atoms: C_4  and  O_5
REMARK    3  A    between atoms: C_14  and  O_15
REMARK    4  A    between atoms: O_15  and  C_16
REMARK    5  A    between atoms: C_16  and  C_17
REMARK    6  A    between atoms: C_17  and  C_18
REMARK    7  A    between atoms: C_17  and  C_19
REMARK    8  A    between atoms: C_22  and  C_23
REMARK    9  A    between atoms: C_23  and  O_24
REMARK                            x       y       z     vdW  Elec       q    Type
REMARK                         _______ _______ _______ _____ _____    ______ ____
ROOT
ATOM      1  C   UNL     1       1.292   5.113   0.000  0.00  0.00    +0.031 C 
ATOM      2  C   UNL     1       1.292   3.613   0.000  0.00  0.00    +0.037 C 
ATOM      3  C   UNL     1       2.591   2.863   0.000  0.00  0.00    -0.045 C 
ATOM      7  C   UNL     1       3.890   3.613   0.000  0.00  0.00    +0.019 C 
ATOM      8  C   UNL     1       5.189   2.863   0.000  0.00  0.00    +0.211 C 
ATOM      9  O   UNL     1       5.501   1.396   0.000  0.00  0.00    -0.453 OA
ATOM     10  C   UNL     1       6.992   1.239   0.000  0.00  0.00    +0.336 C 
ATOM     11  O   UNL     1       7.742  -0.060   0.000  0.00  0.00    -0.245 OA
ATOM     12  C   UNL     1       7.602   2.610   0.000  0.00  0.00    +0.040 C 
ATOM     13  C   UNL     1       9.070   2.922   0.000  0.00  0.00    +0.020 C 
ATOM     14  C   UNL     1       6.488   3.613   0.000  0.00  0.00    +0.111 C 
ATOM     15  C   UNL     1       6.488   5.113   0.000  0.00  0.00    +0.192 C 
ATOM     22  C   UNL     1       5.189   5.863   0.000  0.00  0.00    +0.078 C 
ATOM     23  C   UNL     1       3.890   5.113   0.000  0.00  0.00    -0.045 C 
ATOM     27  C   UNL     1       2.591   5.863   0.000  0.00  0.00    -0.025 C 
ENDROOT
BRANCH   3   4
ATOM      4  C   UNL     1       2.591   1.363   0.000  0.00  0.00    +0.186 C 
BRANCH   4   5
ATOM      5  O   UNL     1       3.890   0.613   0.000  0.00  0.00    -0.391 OA
ATOM      6  H   UNL     1       3.890  -0.357   0.000  0.00  0.00    +0.210 HD
ENDBRANCH   4   5
ENDBRANCH   3   4
BRANCH  15  16
ATOM     16  O   UNL     1       7.787   5.863   0.000  0.00  0.00    -0.460 OA
BRANCH  16  17
ATOM     17  C   UNL     1       7.787   7.363   0.000  0.00  0.00    +0.310 C 
ATOM     21  O   UNL     1       9.086   8.113   0.000  0.00  0.00    -0.251 OA
BRANCH  17  18
ATOM     18  C   UNL     1       6.488   8.113   0.000  0.00  0.00    +0.092 C 
ATOM     19  C   UNL     1       6.488   9.613   0.000  0.00  0.00    +0.019 C 
ATOM     20  C   UNL     1       5.189   7.363   0.000  0.00  0.00    +0.019 C 
ENDBRANCH  17  18
ENDBRANCH  16  17
ENDBRANCH  15  16
BRANCH  23  24
ATOM     24  C   UNL     1       3.460   2.676   0.000  0.00  0.00    +0.186 C 
BRANCH  24  25
ATOM     25  O   UNL     1       4.609   1.712   0.000  0.00  0.00    -0.391 OA
ATOM     26  H   UNL     1       4.440   0.757   0.000  0.00  0.00    +0.210 HD
ENDBRANCH  24  25
ENDBRANCH  23  24
TORSDOF 7