REMARK  Name = NSC 26327
REMARK  2 active torsions:
REMARK  status: ('A' for Active; 'I' for Inactive)
REMARK    1  A    between atoms: C_13  and  C_14
REMARK    2  A    between atoms: C_13  and  C_15
REMARK                            x       y       z     vdW  Elec       q    Type
REMARK                         _______ _______ _______ _____ _____    ______ ____
ROOT
ATOM      1  O   UNL     1      -6.124  -0.750   0.000  0.00  0.00    -0.283 OA
ATOM      2  C   UNL     1      -6.124  -2.250   0.000  0.00  0.00    +0.228 C 
ATOM      3  C   UNL     1      -7.423  -3.000   0.000  0.00  0.00    +0.036 A 
ATOM      4  C   UNL     1      -8.722  -2.250   0.000  0.00  0.00    +0.012 A 
ATOM      5  C   UNL     1     -10.021  -3.000   0.000  0.00  0.00    +0.001 A 
ATOM      6  C   UNL     1     -10.021  -4.500   0.000  0.00  0.00    +0.001 A 
ATOM      7  C   UNL     1      -8.722  -5.250   0.000  0.00  0.00    +0.012 A 
ATOM      8  C   UNL     1      -7.423  -4.500   0.000  0.00  0.00    +0.033 A 
ATOM      9  C   UNL     1      -6.124  -5.250   0.000  0.00  0.00    +0.193 C 
ATOM     10  C   UNL     1      -4.825  -4.500   0.000  0.00  0.00    +0.045 C 
ATOM     11  C   UNL     1      -3.526  -5.250   0.000  0.00  0.00    +0.047 C 
ATOM     12  C   UNL     1      -2.227  -4.500   0.000  0.00  0.00    +0.052 C 
ATOM     13  C   UNL     1      -2.227  -3.000   0.000  0.00  0.00    +0.106 C 
ATOM     14  C   UNL     1      -0.750  -3.261   0.000  0.00  0.00    +0.055 C 
ATOM     15  C   UNL     1      -1.714  -1.591   0.000  0.00  0.00    +0.055 C 
ATOM     16  O   UNL     1      -3.526  -2.250   0.000  0.00  0.00    -0.482 OA
ATOM     17  O   UNL     1      -6.124  -6.750   0.000  0.00  0.00    -0.287 OA
ATOM     18  C   UNL     1      -4.825  -3.000   0.000  0.00  0.00    +0.175 C 
ENDROOT
TORSDOF 0