REMARK  Name = NSC 294408
REMARK  10 active torsions:
REMARK  status: ('A' for Active; 'I' for Inactive)
REMARK    1  A    between atoms: C_1  and  C_2
REMARK    2  A    between atoms: C_1  and  C_3
REMARK    3  A    between atoms: C_4  and  C_5
REMARK    4  A    between atoms: C_12  and  C_13
REMARK    5  A    between atoms: C_13  and  O_14
REMARK    6  A    between atoms: N_15  and  C_16
REMARK    7  A    between atoms: C_24  and  O_25
REMARK    8  A    between atoms: C_26  and  O_27
REMARK    9  A    between atoms: O_27  and  C_28
REMARK   10  A    between atoms: C_28  and  C_29
REMARK                            x       y       z     vdW  Elec       q    Type
REMARK                         _______ _______ _______ _____ _____    ______ ____
ROOT
ATOM      1  C   UNL     1      -4.089  -0.396   0.000  0.00  0.00    +0.052 C 
ATOM      2  C   UNL     1      -4.959  -0.396   0.000  0.00  0.00    +0.021 C 
ATOM      3  C   UNL     1      -4.784   0.559   0.000  0.00  0.00    +0.021 C 
ATOM      4  C   UNL     1      -4.089  -1.186   0.000  0.00  0.00    +0.129 C 
ATOM      5  C   UNL     1      -4.089  -2.056   0.000  0.00  0.00    +0.039 C 
ATOM      6  O   UNL     1      -2.132  -1.186   0.000  0.00  0.00    -0.358 OA
ATOM      7  C   UNL     1      -1.659  -0.366   0.000  0.00  0.00    +0.169 C 
ATOM      8  C   UNL     1      -0.369  -1.656   0.000  0.00  0.00    +0.072 C 
ATOM      9  C   UNL     1       0.711  -0.366   0.000  0.00  0.00    +0.117 C 
ATOM     10  N   UNL     1       1.833  -0.366   0.000  0.00  0.00    -0.270 N 
ATOM     11  C   UNL     1       2.299  -1.186   0.000  0.00  0.00    +0.254 C 
ATOM     12  C   UNL     1       3.041  -1.186   0.000  0.00  0.00    +0.193 C 
ATOM     16  N   UNL     1       3.621  -0.182   0.000  0.00  0.00    -0.277 N 
ATOM     17  C   UNL     1       4.431  -0.182   0.000  0.00  0.00    +0.134 C 
ATOM     18  C   UNL     1       3.174   0.444   0.000  0.00  0.00    +0.252 C 
ATOM     19  O   UNL     1       3.886   1.156   0.000  0.00  0.00    -0.272 OA
ATOM     20  S   UNL     1       2.301  -0.366   0.000  0.00  0.00    -0.053 S 
ATOM     21  S   UNL     1       3.122  -0.366   0.000  0.00  0.00    -0.055 S 
ATOM     22  O   UNL     1       1.440  -2.045   0.000  0.00  0.00    -0.272 OA
ATOM     23  C   UNL     1       2.301   0.444   0.000  0.00  0.00    +0.173 C 
ATOM     24  C   UNL     1       1.141   1.614   0.000  0.00  0.00    +0.088 C 
ATOM     25  C   UNL     1      -0.029   0.374   0.000  0.00  0.00    +0.128 C 
ATOM     28  C   UNL     1      -1.659   0.374   0.000  0.00  0.00    +0.249 C 
ATOM     33  C   UNL     1      -2.849   0.814   0.000  0.00  0.00    +0.177 C 
ATOM     34  O   UNL     1      -2.849   1.506   0.000  0.00  0.00    -0.294 OA
ENDROOT
BRANCH  25  26
ATOM     26  O   UNL     1      -0.029   2.295   0.000  0.00  0.00    -0.383 OA
ATOM     27  H   UNL     1       0.811   2.780   0.000  0.00  0.00    +0.210 HD
ENDBRANCH  25  26
BRANCH  12  13
ATOM     13  C   UNL     1       3.041  -1.976   0.000  0.00  0.00    +0.203 C 
BRANCH  13  14
ATOM     14  O   UNL     1       3.881  -1.976   0.000  0.00  0.00    -0.391 OA
ATOM     15  H   UNL     1       4.366  -2.816   0.000  0.00  0.00    +0.210 HD
ENDBRANCH  13  14
ENDBRANCH  12  13
BRANCH  28  29
ATOM     29  O   UNL     1      -1.659   1.084   0.000  0.00  0.00    -0.455 OA
BRANCH  29  30
ATOM     30  C   UNL     1      -1.659   1.884   0.000  0.00  0.00    +0.304 C 
ATOM     31  C   UNL     1      -0.689   2.444   0.000  0.00  0.00    +0.136 C 
ATOM     32  O   UNL     1      -2.629   2.444   0.000  0.00  0.00    -0.251 OA
ENDBRANCH  29  30
ENDBRANCH  28  29
TORSDOF 5