REMARK  Name = NSC 285116
REMARK  25 active torsions:
REMARK  status: ('A' for Active; 'I' for Inactive)
REMARK    1  A    between atoms: C_5  and  C_104
REMARK    2  A    between atoms: C_12  and  C_13
REMARK    3  A    between atoms: C_19  and  O_20
REMARK    4  A    between atoms: C_23  and  C_24
REMARK    5  A    between atoms: C_24  and  C_25
REMARK    6  A    between atoms: C_24  and  C_26
REMARK    7  A    between atoms: C_37  and  C_38
REMARK    8  A    between atoms: C_47  and  C_48
REMARK    9  A    between atoms: C_48  and  C_49
REMARK   10  A    between atoms: C_48  and  O_50
REMARK   11  A    between atoms: C_54  and  C_55
REMARK   12  A    between atoms: C_62  and  C_63
REMARK   13  A    between atoms: C_65  and  C_66
REMARK   14  A    between atoms: N_67  and  C_68
REMARK   15  A    between atoms: C_68  and  C_70
REMARK   16  A    between atoms: N_71  and  C_72
REMARK   17  A    between atoms: C_72  and  C_74
REMARK   18  A    between atoms: C_94  and  C_95
REMARK   19  A    between atoms: C_95  and  O_96
REMARK   20  A    between atoms: C_95  and  C_97
REMARK   21  A    between atoms: C_104  and  O_105
REMARK   22  A    between atoms: C_104  and  C_106
REMARK   23  A    between atoms: C_104  and  C_107
REMARK   24  A    between atoms: C_107  and  O_108
REMARK   25  A    between atoms: C_107  and  C_109
REMARK                            x       y       z     vdW  Elec       q    Type
REMARK                         _______ _______ _______ _____ _____    ______ ____
ROOT
ATOM      1  N   UNL     1       0.255   6.498   0.000  0.00  0.00    -0.262 NA
ATOM      2  C   UNL     1      -0.476   7.029   0.000  0.00  0.00    +0.202 C 
ATOM      3  C   UNL     1      -1.260   6.577   0.000  0.00  0.00    +0.239 C 
ATOM      4  N   UNL     1      -1.260   5.673   0.000  0.00  0.00    -0.302 N 
ATOM      5  H   UNL     1      -0.407   5.181   0.000  0.00  0.00    +0.150 HD
ATOM      6  C   UNL     1      -2.043   5.221   0.000  0.00  0.00    +0.162 C 
ATOM      7  C   UNL     1      -2.043   4.317   0.000  0.00  0.00    +0.102 A 
ATOM      8  N   UNL     1      -1.312   3.787   0.000  0.00  0.00    -0.237 NA
ATOM      9  C   UNL     1      -1.591   2.926   0.000  0.00  0.00    +0.133 A 
ATOM     10  C   UNL     1      -1.139   2.144   0.000  0.00  0.00    +0.264 C 
ATOM     11  N   UNL     1      -1.591   1.361   0.000  0.00  0.00    -0.298 N 
ATOM     12  H   UNL     1      -2.575   1.362   0.000  0.00  0.00    +0.150 HD
ATOM     13  C   UNL     1      -1.139   0.579   0.000  0.00  0.00    +0.169 C 
ATOM     14  C   UNL     1      -1.611  -0.115   0.000  0.00  0.00    +0.200 C 
ATOM     15  C   UNL     1      -2.515  -0.115   0.000  0.00  0.00    +0.054 C 
ATOM     16  O   UNL     1      -1.183  -0.910   0.000  0.00  0.00    -0.455 OA
ATOM     17  C   UNL     1      -1.655  -1.589   0.000  0.00  0.00    +0.358 C 
ATOM     18  C   UNL     1      -2.562  -1.589   0.000  0.00  0.00    +0.148 A 
ATOM     19  N   UNL     1      -3.014  -2.371   0.000  0.00  0.00    -0.242 NA
ATOM     20  C   UNL     1      -3.918  -2.371   0.000  0.00  0.00    +0.080 A 
ATOM     21  C   UNL     1      -4.370  -3.154   0.000  0.00  0.00    +0.184 C 
ATOM     24  C   UNL     1      -5.274  -3.154   0.000  0.00  0.00    +0.112 C 
ATOM     25  N   UNL     1      -5.806  -3.889   0.000  0.00  0.00    -0.297 NA
ATOM     26  H   UNL     1      -6.822  -3.809   0.000  0.00  0.00    +0.123 HD
ATOM     27  C   UNL     1      -5.410  -4.671   0.000  0.00  0.00    +0.144 C 
ATOM     31  C   UNL     1      -4.476  -4.671   0.000  0.00  0.00    +0.235 C 
ATOM     32  N   UNL     1      -4.055  -5.548   0.000  0.00  0.00    -0.281 N 
ATOM     33  H   UNL     1      -4.578  -6.382   0.000  0.00  0.00    +0.155 HD
ATOM     34  C   UNL     1      -3.151  -5.548   0.000  0.00  0.00    +0.089 C 
ATOM     35  C   UNL     1      -2.699  -6.331   0.000  0.00  0.00    +0.039 C 
ATOM     36  C   UNL     1      -2.672  -4.782   0.000  0.00  0.00    +0.262 C 
ATOM     37  N   UNL     1      -1.768  -4.782   0.000  0.00  0.00    -0.277 N 
ATOM     38  H   UNL     1      -1.298  -5.647   0.000  0.00  0.00    +0.155 HD
ATOM     39  C   UNL     1      -1.290  -4.046   0.000  0.00  0.00    +0.089 C 
ATOM     40  C   UNL     1      -1.742  -3.264   0.000  0.00  0.00    +0.039 C 
ATOM     41  C   UNL     1      -0.386  -4.046   0.000  0.00  0.00    +0.258 C 
ATOM     42  N   UNL     1       0.092  -3.343   0.000  0.00  0.00    -0.299 N 
ATOM     43  H   UNL     1      -0.368  -2.473   0.000  0.00  0.00    +0.150 HD
ATOM     44  C   UNL     1       0.996  -3.343   0.000  0.00  0.00    +0.156 C 
ATOM     45  C   UNL     1       1.448  -4.126   0.000  0.00  0.00    +0.038 C 
ATOM     46  C   UNL     1       1.476  -2.576   0.000  0.00  0.00    +0.234 C 
ATOM     47  N   UNL     1       2.708  -0.799   0.000  0.00  0.00    -0.300 N 
ATOM     48  H   UNL     1       3.648  -1.093   0.000  0.00  0.00    +0.150 HD
ATOM     49  C   UNL     1       2.708   0.127   0.000  0.00  0.00    +0.111 C 
ATOM     50  C   UNL     1       2.707   0.955   0.000  0.00  0.00    +0.105 A 
ATOM     51  N   UNL     1       1.976   1.486   0.000  0.00  0.00    -0.237 NA
ATOM     52  C   UNL     1       2.255   2.346   0.000  0.00  0.00    +0.133 A 
ATOM     53  C   UNL     1       1.860   3.111   0.000  0.00  0.00    +0.264 C 
ATOM     54  N   UNL     1       2.347   3.813   0.000  0.00  0.00    -0.297 N 
ATOM     55  H   UNL     1       3.159   3.256   0.000  0.00  0.00    +0.150 HD
ATOM     56  C   UNL     1       2.865   4.577   0.000  0.00  0.00    +0.188 C 
ATOM     61  C   UNL     1       2.551   5.221   0.000  0.00  0.00    +0.240 C 
ATOM     62  N   UNL     1       1.768   5.673   0.000  0.00  0.00    -0.282 N 
ATOM     63  H   UNL     1       0.916   5.181   0.000  0.00  0.00    +0.155 HD
ATOM     64  C   UNL     1       1.768   6.577   0.000  0.00  0.00    +0.061 C 
ATOM     65  C   UNL     1       2.551   7.029   0.000  0.00  0.00    -0.004 C 
ATOM     66  C   UNL     1       3.334   6.577   0.000  0.00  0.00    +0.037 C 
ATOM     67  O   UNL     1       3.334   5.673   0.000  0.00  0.00    -0.273 OA
ATOM     68  O   UNL     1       0.957   3.094   0.000  0.00  0.00    -0.268 OA
ATOM     69  C   UNL     1       3.159   2.346   0.000  0.00  0.00    +0.080 A 
ATOM     70  S   UNL     1       3.438   1.486   0.000  0.00  0.00    -0.078 S 
ATOM     71  C   UNL     1       3.490  -0.325   0.000  0.00  0.00    +0.041 C 
ATOM     72  C   UNL     1       3.490  -1.229   0.000  0.00  0.00    +0.060 C 
ATOM     73  C   UNL     1       2.707  -1.681   0.000  0.00  0.00    +0.069 C 
ATOM     96  N   UNL     1       1.925  -1.229   0.000  0.00  0.00    -0.273 NA
ATOM     97  C   UNL     1       1.925  -0.325   0.000  0.00  0.00    +0.184 C 
ATOM     98  C   UNL     1       1.142   0.127   0.000  0.00  0.00    +0.076 A 
ATOM     99  C   UNL     1       1.142   1.031   0.000  0.00  0.00    +0.072 A 
ATOM    100  S   UNL     1       0.282   1.310   0.000  0.00  0.00    -0.078 S 
ATOM    101  N   UNL     1       0.282  -0.152   0.000  0.00  0.00    -0.245 NA
ATOM    102  O   UNL     1       1.024  -1.794   0.000  0.00  0.00    -0.274 OA
ATOM    103  O   UNL     1       0.067  -4.829   0.000  0.00  0.00    -0.269 OA
ATOM    104  O   UNL     1      -3.123  -3.999   0.000  0.00  0.00    -0.268 OA
ATOM    105  O   UNL     1      -4.929  -5.454   0.000  0.00  0.00    -0.274 OA
ATOM    106  C   UNL     1      -5.726  -2.371   0.000  0.00  0.00    -0.005 C 
ATOM    107  C   UNL     1      -5.274  -1.589   0.000  0.00  0.00    +0.007 C 
ATOM    108  C   UNL     1      -4.370  -1.589   0.000  0.00  0.00    +0.004 A 
ATOM    109  C   UNL     1      -3.918  -0.806   0.000  0.00  0.00    -0.008 A 
ATOM    114  C   UNL     1      -3.014  -0.806   0.000  0.00  0.00    +0.041 A 
ATOM    115  O   UNL     1      -1.203  -2.371   0.000  0.00  0.00    -0.243 OA
ATOM    116  C   UNL     1      -0.249   0.579   0.000  0.00  0.00    +0.102 A 
ATOM    117  O   UNL     1      -0.235   2.144   0.000  0.00  0.00    -0.268 OA
ATOM    118  C   UNL     1      -2.495   2.926   0.000  0.00  0.00    +0.080 A 
ATOM    119  S   UNL     1      -2.773   3.787   0.000  0.00  0.00    -0.078 S 
ATOM    128  O   UNL     1      -2.043   7.029   0.000  0.00  0.00    -0.273 OA
ATOM    129  C   UNL     1      -0.198   7.890   0.000  0.00  0.00    +0.112 C 
ATOM    130  S   UNL     1       0.706   7.890   0.000  0.00  0.00    -0.102 S 
ATOM    131  C   UNL     1       0.985   7.029   0.000  0.00  0.00    +0.113 C 
ENDROOT
BRANCH  73  74
ATOM     74  C   UNL     1       2.707  -2.585   0.000  0.00  0.00    +0.123 A 
ATOM     75  N   UNL     1       3.440  -3.116   0.000  0.00  0.00    -0.233 NA
ATOM     76  C   UNL     1       3.159  -3.976   0.000  0.00  0.00    +0.134 A 
ATOM     94  C   UNL     1       2.255  -3.976   0.000  0.00  0.00    +0.080 A 
ATOM     95  S   UNL     1       1.976  -3.116   0.000  0.00  0.00    -0.074 S 
BRANCH  76  77
ATOM     77  C   UNL     1       3.590  -4.776   0.000  0.00  0.00    +0.267 C 
ATOM     78  N   UNL     1       4.493  -4.803   0.000  0.00  0.00    -0.277 N 
ATOM     79  H   UNL     1       4.960  -5.670   0.000  0.00  0.00    +0.155 HD
ATOM     93  O   UNL     1       3.114  -5.544   0.000  0.00  0.00    -0.268 OA
BRANCH  78  80
ATOM     80  C   UNL     1       4.968  -4.034   0.000  0.00  0.00    +0.089 C 
ATOM     81  C   UNL     1       4.540  -3.238   0.000  0.00  0.00    +0.039 C 
BRANCH  80  82
ATOM     82  C   UNL     1       5.872  -4.062   0.000  0.00  0.00    +0.262 C 
ATOM     83  N   UNL     1       6.348  -3.292   0.000  0.00  0.00    -0.277 N 
ATOM     84  H   UNL     1       5.882  -2.425   0.000  0.00  0.00    +0.155 HD
ATOM     92  O   UNL     1       6.301  -4.857   0.000  0.00  0.00    -0.268 OA
BRANCH  83  85
ATOM     85  C   UNL     1       7.251  -3.319   0.000  0.00  0.00    +0.089 C 
ATOM     86  C   UNL     1       7.679  -4.116   0.000  0.00  0.00    +0.039 C 
BRANCH  85  87
ATOM     87  C   UNL     1       7.727  -2.551   0.000  0.00  0.00    +0.255 C 
ATOM     88  N   UNL     1       8.631  -2.578   0.000  0.00  0.00    -0.324 N 
ATOM     89  H   UNL     1       9.149  -1.741   0.000  0.00  0.00    +0.145 HD
ATOM     90  H   UNL     1       9.098  -3.445   0.000  0.00  0.00    +0.145 HD
ATOM     91  O   UNL     1       7.298  -1.754   0.000  0.00  0.00    -0.269 OA
ENDBRANCH  85  87
ENDBRANCH  83  85
ENDBRANCH  80  82
ENDBRANCH  78  80
ENDBRANCH  76  77
ENDBRANCH  73  74
BRANCH  27  28
ATOM     28  C   UNL     1      -5.862  -5.454   0.000  0.00  0.00    +0.009 C 
ATOM     29  C   UNL     1      -5.410  -6.236   0.000  0.00  0.00    +0.009 C 
ATOM     30  C   UNL     1      -7.059  -5.388   0.000  0.00  0.00    +0.009 C 
ENDBRANCH  27  28
BRANCH  21  22
ATOM     22  O   UNL     1      -3.918  -3.937   0.000  0.00  0.00    -0.384 OA
ATOM     23  H   UNL     1      -4.403  -4.777   0.000  0.00  0.00    +0.210 HD
ENDBRANCH  21  22
BRANCH  56  57
ATOM     57  C   UNL     1       3.765   4.577   0.000  0.00  0.00    +0.141 C 
ATOM     58  C   UNL     1       4.215   3.797   0.000  0.00  0.00    +0.040 C 
BRANCH  57  59
ATOM     59  O   UNL     1       4.215   5.356   0.000  0.00  0.00    -0.390 OA
ATOM     60  H   UNL     1       5.185   5.355   0.000  0.00  0.00    +0.210 HD
ENDBRANCH  57  59
ENDBRANCH  56  57
BRANCH 109 110
ATOM    110  C   UNL     1      -4.370  -0.023   0.000  0.00  0.00    +0.142 C 
ATOM    113  C   UNL     1      -5.274  -0.023   0.000  0.00  0.00    +0.043 C 
BRANCH 110 111
ATOM    111  O   UNL     1      -3.918   0.759   0.000  0.00  0.00    -0.387 OA
ATOM    112  H   UNL     1      -2.948   0.760   0.000  0.00  0.00    +0.210 HD
ENDBRANCH 110 111
ENDBRANCH 109 110
BRANCH   6 120
ATOM    120  C   UNL     1      -2.825   5.673   0.000  0.00  0.00    +0.113 C 
ATOM    123  C   UNL     1      -2.628   6.441   0.000  0.00  0.00    +0.046 C 
BRANCH 120 121
ATOM    121  O   UNL     1      -3.462   5.085   0.000  0.00  0.00    -0.384 OA
ATOM    122  H   UNL     1      -4.389   5.374   0.000  0.00  0.00    +0.210 HD
ENDBRANCH 120 121
BRANCH 120 124
ATOM    124  C   UNL     1      -3.608   6.125   0.000  0.00  0.00    +0.145 C 
ATOM    127  C   UNL     1      -4.391   5.673   0.000  0.00  0.00    +0.040 C 
BRANCH 124 125
ATOM    125  O   UNL     1      -3.608   7.029   0.000  0.00  0.00    -0.389 OA
ATOM    126  H   UNL     1      -2.768   7.515   0.000  0.00  0.00    +0.210 HD
ENDBRANCH 124 125
ENDBRANCH 120 124
ENDBRANCH   6 120
TORSDOF 16