REMARK  Name = NSC 292463
REMARK  6 active torsions:
REMARK  status: ('A' for Active; 'I' for Inactive)
REMARK    1  A    between atoms: C_1  and  C_2
REMARK    2  A    between atoms: C_14  and  C_15
REMARK    3  A    between atoms: C_16  and  O_17
REMARK    4  A    between atoms: O_17  and  C_18
REMARK    5  A    between atoms: C_18  and  C_20
REMARK    6  A    between atoms: C_33  and  C_36
REMARK                            x       y       z     vdW  Elec       q    Type
REMARK                         _______ _______ _______ _____ _____    ______ ____
ROOT
ATOM      1  C   UNL     1       2.772   0.415   0.000  0.00  0.00    +0.019 C 
ATOM      2  C   UNL     1       2.006  -0.228   0.000  0.00  0.00    +0.050 C 
ATOM      3  C   UNL     1       2.006   0.772   0.000  0.00  0.00    +0.189 C 
ATOM      4  O   UNL     1       2.872   1.272   0.000  0.00  0.00    -0.458 OA
ATOM      5  C   UNL     1       2.872   2.272   0.000  0.00  0.00    +0.332 C 
ATOM      6  C   UNL     1       2.006   2.772   0.000  0.00  0.00    +0.091 C 
ATOM      7  C   UNL     1       1.140   2.272   0.000  0.00  0.00    +0.007 C 
ATOM      8  C   UNL     1       0.274   2.772   0.000  0.00  0.00    +0.007 C 
ATOM      9  C   UNL     1      -0.592   2.272   0.000  0.00  0.00    +0.091 C 
ATOM     10  C   UNL     1      -1.458   2.772   0.000  0.00  0.00    +0.332 C 
ATOM     11  O   UNL     1      -2.324   2.272   0.000  0.00  0.00    -0.462 OA
ATOM     12  C   UNL     1      -2.324   1.272   0.000  0.00  0.00    +0.233 C 
ATOM     13  C   UNL     1      -3.190   0.772   0.000  0.00  0.00    +0.048 C 
ATOM     14  C   UNL     1      -3.190  -0.228   0.000  0.00  0.00    +0.041 C 
ATOM     15  C   UNL     1      -4.056  -0.728   0.000  0.00  0.00    +0.012 C 
ATOM     16  C   UNL     1      -2.324  -0.728   0.000  0.00  0.00    +0.287 C 
ATOM     21  C   UNL     1      -1.458  -0.228   0.000  0.00  0.00    +0.349 C 
ATOM     22  O   UNL     1      -1.458   0.772   0.000  0.00  0.00    -0.247 OA
ATOM     23  O   UNL     1      -0.592  -0.728   0.000  0.00  0.00    -0.461 OA
ATOM     24  C   UNL     1       0.274  -0.228   0.000  0.00  0.00    +0.242 C 
ATOM     25  O   UNL     1      -1.458   3.772   0.000  0.00  0.00    -0.246 OA
ATOM     26  O   UNL     1       3.738   2.772   0.000  0.00  0.00    -0.246 OA
ATOM     27  C   UNL     1       2.443  -0.510   0.000  0.00  0.00    +0.080 C 
ATOM     28  C   UNL     1       2.924  -1.776   0.000  0.00  0.00    +0.157 C 
ATOM     29  O   UNL     1       2.022  -2.297   0.000  0.00  0.00    -0.367 OA
ATOM     30  C   UNL     1       1.140  -1.728   0.000  0.00  0.00    +0.160 C 
ATOM     31  C   UNL     1       0.274  -2.228   0.000  0.00  0.00    +0.180 C 
ATOM     32  O   UNL     1      -0.592  -2.728   0.000  0.00  0.00    -0.362 OA
ATOM     33  C   UNL     1      -0.592  -1.728   0.000  0.00  0.00    +0.096 C 
ATOM     34  C   UNL     1      -0.592  -0.728   0.000  0.00  0.00    +0.038 C 
ATOM     35  C   UNL     1       0.274  -0.228   0.000  0.00  0.00    +0.016 C 
ATOM     36  C   UNL     1      -1.458  -1.228   0.000  0.00  0.00    +0.044 C 
ATOM     37  C   UNL     1       2.916  -0.734   0.000  0.00  0.00    +0.128 C 
ATOM     38  O   UNL     1       3.916  -0.723   0.000  0.00  0.00    -0.365 OA
ATOM     39  C   UNL     1       3.406   0.137   0.000  0.00  0.00    +0.199 C 
ATOM     40  C   UNL     1       1.140  -0.728   0.000  0.00  0.00    +0.045 C 
ENDROOT
BRANCH  16  17
ATOM     17  O   UNL     1      -2.324  -1.728   0.000  0.00  0.00    -0.450 OA
BRANCH  17  18
ATOM     18  C   UNL     1      -3.190  -2.228   0.000  0.00  0.00    +0.305 C 
ATOM     19  O   UNL     1      -4.056  -1.728   0.000  0.00  0.00    -0.251 OA
ATOM     20  C   UNL     1      -3.190  -3.228   0.000  0.00  0.00    +0.136 C 
ENDBRANCH  17  18
ENDBRANCH  16  17
TORSDOF 2