REMARK  Name = NSC 30238
REMARK  6 active torsions:
REMARK  status: ('A' for Active; 'I' for Inactive)
REMARK    1  A    between atoms: C_1  and  O_2
REMARK    2  A    between atoms: C_1  and  C_4
REMARK    3  A    between atoms: C_4  and  O_5
REMARK    4  A    between atoms: C_6  and  O_7
REMARK    5  A    between atoms: C_6  and  C_8
REMARK    6  A    between atoms: C_8  and  O_9
REMARK                            x       y       z     vdW  Elec       q    Type
REMARK                         _______ _______ _______ _____ _____    ______ ____
ROOT
ATOM      5  C   UNL     1       3.000   2.049   0.000  0.00  0.00    +0.251 C 
ATOM      8  C   UNL     1       4.500   2.049   0.000  0.00  0.00    +0.251 C 
ENDROOT
BRANCH   5   1
ATOM      1  C   UNL     1       2.250   3.348   0.000  0.00  0.00    +0.376 C 
ATOM      4  O   UNL     1       3.000   4.647   0.000  0.00  0.00    -0.242 OA
BRANCH   1   2
ATOM      2  O   UNL     1       0.750   3.348   0.000  0.00  0.00    -0.475 OA
ATOM      3  H   UNL     1       0.281   4.160   0.000  0.00  0.00    +0.296 HD
ENDBRANCH   1   2
ENDBRANCH   5   1
BRANCH   5   6
ATOM      6  O   UNL     1       2.250   0.750   0.000  0.00  0.00    -0.498 OA
ATOM      7  H   UNL     1       1.313   0.750   0.000  0.00  0.00    +0.293 HD
ENDBRANCH   5   6
BRANCH   8   9
ATOM      9  O   UNL     1       5.250   0.750   0.000  0.00  0.00    -0.498 OA
ATOM     10  H   UNL     1       4.782  -0.061   0.000  0.00  0.00    +0.293 HD
ENDBRANCH   8   9
BRANCH   8  11
ATOM     11  C   UNL     1       5.250   3.348   0.000  0.00  0.00    +0.376 C 
ATOM     14  O   UNL     1       4.500   4.647   0.000  0.00  0.00    -0.242 OA
BRANCH  11  12
ATOM     12  O   UNL     1       6.750   3.348   0.000  0.00  0.00    -0.475 OA
ATOM     13  H   UNL     1       7.218   2.537   0.000  0.00  0.00    +0.296 HD
ENDBRANCH  11  12
ENDBRANCH   8  11
TORSDOF 6