REMARK  Name = NSC 266032
REMARK  3 active torsions:
REMARK  status: ('A' for Active; 'I' for Inactive)
REMARK    1  A    between atoms: C_5  and  O_6
REMARK    2  A    between atoms: C_7  and  C_8
REMARK    3  A    between atoms: C_8  and  O_9
REMARK                            x       y       z     vdW  Elec       q    Type
REMARK                         _______ _______ _______ _____ _____    ______ ____
ROOT
ATOM      1  O   UNL     1      -1.400   1.674   0.000  0.00  0.00    -0.290 OA
ATOM      2  C   UNL     1      -1.400   3.174   0.000  0.00  0.00    +0.187 C 
ATOM      3  C   UNL     1      -2.699   3.924   0.000  0.00  0.00    +0.047 C 
ATOM      4  C   UNL     1      -2.699   5.424   0.000  0.00  0.00    +0.010 C 
ATOM      5  C   UNL     1      -1.400   6.174   0.000  0.00  0.00    +0.175 C 
ATOM      8  C   UNL     1      -0.101   5.424   0.000  0.00  0.00    +0.156 C 
ATOM     12  O   UNL     1       1.199   4.674   0.000  0.00  0.00    -0.351 OA
ATOM     13  C   UNL     1      -0.101   3.924   0.000  0.00  0.00    +0.226 C 
ENDROOT
BRANCH   5   6
ATOM      6  O   UNL     1      -1.400   7.674   0.000  0.00  0.00    -0.385 OA
ATOM      7  H   UNL     1      -0.559   8.159   0.000  0.00  0.00    +0.210 HD
ENDBRANCH   5   6
BRANCH   8   9
ATOM      9  C   UNL     1       0.649   6.723   0.000  0.00  0.00    +0.196 C 
BRANCH   9  10
ATOM     10  O   UNL     1       2.150   6.723   0.000  0.00  0.00    -0.392 OA
ATOM     11  H   UNL     1       2.635   5.883   0.000  0.00  0.00    +0.210 HD
ENDBRANCH   9  10
ENDBRANCH   8   9
TORSDOF 3