REMARK  Name = NSC 29854
REMARK  18 active torsions:
REMARK  status: ('A' for Active; 'I' for Inactive)
REMARK    1  A    between atoms: C_5  and  O_6
REMARK    2  A    between atoms: O_6  and  C_7
REMARK    3  A    between atoms: C_7  and  C_9
REMARK    4  A    between atoms: C_9  and  C_10
REMARK    5  A    between atoms: C_10  and  C_11
REMARK    6  A    between atoms: C_13  and  O_14
REMARK    7  A    between atoms: O_14  and  C_15
REMARK    8  A    between atoms: C_16  and  O_17
REMARK    9  A    between atoms: O_17  and  C_18
REMARK   10  A    between atoms: C_19  and  O_20
REMARK   11  A    between atoms: O_20  and  C_21
REMARK   12  A    between atoms: C_23  and  O_24
REMARK   13  A    between atoms: O_24  and  C_25
REMARK   14  A    between atoms: C_26  and  C_27
REMARK   15  A    between atoms: C_27  and  O_29
REMARK   16  A    between atoms: O_29  and  C_30
REMARK   17  A    between atoms: C_40  and  O_41
REMARK   18  A    between atoms: O_41  and  C_42
REMARK                            x       y       z     vdW  Elec       q    Type
REMARK                         _______ _______ _______ _____ _____    ______ ____
ROOT
ATOM      1  N   UNL     1      13.265  10.025   0.000  0.00  0.00    -0.293 NA
ATOM      2  C   UNL     1      11.966   9.274   0.000  0.00  0.00    +0.089 C 
ATOM      3  C   UNL     1      10.667  10.025   0.000  0.00  0.00    +0.011 C 
ATOM      4  C   UNL     1       9.368   9.274   0.000  0.00  0.00    +0.052 C 
ATOM      5  C   UNL     1       8.069  10.025   0.000  0.00  0.00    +0.206 C 
ATOM     23  C   UNL     1       8.069  11.525   0.000  0.00  0.00    +0.172 C 
ATOM     26  C   UNL     1       9.368  12.275   0.000  0.00  0.00    +0.133 C 
ATOM     31  C   UNL     1      10.667  11.525   0.000  0.00  0.00    +0.012 C 
ATOM     32  C   UNL     1      11.966  12.275   0.000  0.00  0.00    +0.030 C 
ATOM     33  C   UNL     1      14.564   9.274   0.000  0.00  0.00    +0.090 C 
ATOM     34  C   UNL     1      15.863  10.025   0.000  0.00  0.00    +0.053 C 
ATOM     35  C   UNL     1      15.863  11.525   0.000  0.00  0.00    -0.016 A 
ATOM     36  C   UNL     1      14.564  12.275   0.000  0.00  0.00    +0.038 A 
ATOM     37  N   UNL     1      14.876  13.742   0.000  0.00  0.00    -0.356 N 
ATOM     38  C   UNL     1      16.368  13.899   0.000  0.00  0.00    +0.050 A 
ATOM     39  C   UNL     1      17.249  15.112   0.000  0.00  0.00    +0.071 A 
ATOM     40  C   UNL     1      18.741  14.955   0.000  0.00  0.00    +0.122 A 
ATOM     43  C   UNL     1      19.351  13.585   0.000  0.00  0.00    +0.046 A 
ATOM     44  C   UNL     1      18.470  12.371   0.000  0.00  0.00    +0.014 A 
ATOM     45  H   UNL     1      13.872  14.857   0.000  0.00  0.00    +0.166 HD
ATOM     46  C   UNL     1      16.978  12.528   0.000  0.00  0.00    +0.003 A 
ATOM     47  C   UNL     1      13.265  11.525   0.000  0.00  0.00    +0.104 C 
ENDROOT
BRANCH  23  24
ATOM     24  O   UNL     1       6.770  12.275   0.000  0.00  0.00    -0.375 OA
ATOM     25  C   UNL     1       6.770  13.775   0.000  0.00  0.00    +0.194 C 
ENDBRANCH  23  24
BRANCH  26  27
ATOM     27  C   UNL     1       9.368  13.775   0.000  0.00  0.00    +0.313 C 
ATOM     28  O   UNL     1      10.667  14.525   0.000  0.00  0.00    -0.250 OA
BRANCH  27  29
ATOM     29  O   UNL     1       8.069  14.525   0.000  0.00  0.00    -0.468 OA
ATOM     30  C   UNL     1       8.069  16.025   0.000  0.00  0.00    +0.280 C 
ENDBRANCH  27  29
ENDBRANCH  26  27
BRANCH  40  41
ATOM     41  O   UNL     1      19.623  16.169   0.000  0.00  0.00    -0.495 OA
ATOM     42  C   UNL     1      19.013  17.539   0.000  0.00  0.00    +0.277 C 
ENDBRANCH  40  41
BRANCH   5   6
ATOM      6  O   UNL     1       6.770   9.274   0.000  0.00  0.00    -0.459 OA
BRANCH   6   7
ATOM      7  C   UNL     1       5.471  10.025   0.000  0.00  0.00    +0.308 C 
ATOM      8  O   UNL     1       5.471  11.525   0.000  0.00  0.00    -0.251 OA
BRANCH   7   9
ATOM      9  C   UNL     1       4.172   9.274   0.000  0.00  0.00    +0.125 C 
BRANCH   9  10
ATOM     10  C   UNL     1       4.172   7.774   0.000  0.00  0.00    +0.046 C 
BRANCH  10  11
ATOM     11  C   UNL     1       2.873   7.024   0.000  0.00  0.00    -0.040 A 
ATOM     12  C   UNL     1       2.873   5.524   0.000  0.00  0.00    +0.053 A 
ATOM     13  C   UNL     1       1.573   4.774   0.000  0.00  0.00    +0.165 A 
ATOM     16  C   UNL     1       0.275   5.524   0.000  0.00  0.00    +0.204 A 
ATOM     19  C   UNL     1       0.275   7.024   0.000  0.00  0.00    +0.165 A 
ATOM     22  C   UNL     1       1.573   7.774   0.000  0.00  0.00    +0.053 A 
BRANCH  13  14
ATOM     14  O   UNL     1       1.573   3.275   0.000  0.00  0.00    -0.491 OA
ATOM     15  C   UNL     1       0.275   2.525   0.000  0.00  0.00    +0.277 C 
ENDBRANCH  13  14
BRANCH  16  17
ATOM     17  O   UNL     1      -1.025   4.774   0.000  0.00  0.00    -0.488 OA
ATOM     18  C   UNL     1      -1.025   3.275   0.000  0.00  0.00    +0.277 C 
ENDBRANCH  16  17
BRANCH  19  20
ATOM     20  O   UNL     1      -1.025   7.774   0.000  0.00  0.00    -0.491 OA
ATOM     21  C   UNL     1      -2.324   7.024   0.000  0.00  0.00    +0.277 C 
ENDBRANCH  19  20
ENDBRANCH  10  11
ENDBRANCH   9  10
ENDBRANCH   7   9
ENDBRANCH   6   7
ENDBRANCH   5   6
TORSDOF 12