REMARK  Name = NSC 28841#1
REMARK  4 active torsions:
REMARK  status: ('A' for Active; 'I' for Inactive)
REMARK    1  A    between atoms: C_2  and  O_3
REMARK    2  A    between atoms: C_5  and  C_6
REMARK    3  A    between atoms: C_6  and  O_7
REMARK    4  A    between atoms: C_10  and  O_11
REMARK                            x       y       z     vdW  Elec       q    Type
REMARK                         _______ _______ _______ _____ _____    ______ ____
ROOT
ATOM      1  N   UNL     1       0.275   4.025   0.000  0.00  0.00    -0.142 NA
ATOM      2  C   UNL     1       1.574   3.275   0.000  0.00  0.00    +0.322 A 
ATOM      5  N   UNL     1       2.873   4.025   0.000  0.00  0.00    -0.169 NA
ATOM      6  C   UNL     1       2.873   5.525   0.000  0.00  0.00    +0.247 A 
ATOM     11  N   UNL     1       1.574   6.275   0.000  0.00  0.00    -0.169 NA
ATOM     12  C   UNL     1       0.275   5.525   0.000  0.00  0.00    +0.322 A 
ENDROOT
BRANCH   2   3
ATOM      3  O   UNL     1       1.574   1.775   0.000  0.00  0.00    -0.478 OA
ATOM      4  H   UNL     1       0.762   1.306   0.000  0.00  0.00    +0.295 HD
ENDBRANCH   2   3
BRANCH   6   7
ATOM      7  C   UNL     1       4.172   6.275   0.000  0.00  0.00    +0.375 C 
ATOM     10  O   UNL     1       5.471   5.525   0.000  0.00  0.00    -0.242 OA
BRANCH   7   8
ATOM      8  O   UNL     1       4.172   7.775   0.000  0.00  0.00    -0.475 OA
ATOM      9  H   UNL     1       4.983   8.243   0.000  0.00  0.00    +0.296 HD
ENDBRANCH   7   8
ENDBRANCH   6   7
BRANCH  12  13
ATOM     13  O   UNL     1      -1.024   6.275   0.000  0.00  0.00    -0.478 OA
ATOM     14  H   UNL     1      -1.024   7.212   0.000  0.00  0.00    +0.295 HD
ENDBRANCH  12  13
TORSDOF 4