REMARK  Name = NSC 281245
REMARK  11 active torsions:
REMARK  status: ('A' for Active; 'I' for Inactive)
REMARK    1  A    between atoms: C_1  and  C_2
REMARK    2  A    between atoms: C_1  and  C_26
REMARK    3  A    between atoms: C_1  and  C_27
REMARK    4  A    between atoms: C_2  and  O_4
REMARK    5  A    between atoms: O_4  and  C_5
REMARK    6  A    between atoms: C_10  and  C_11
REMARK    7  A    between atoms: C_14  and  C_15
REMARK    8  A    between atoms: C_15  and  C_16
REMARK    9  A    between atoms: C_16  and  C_17
REMARK   10  A    between atoms: C_22  and  O_23
REMARK   11  A    between atoms: C_27  and  C_28
REMARK                            x       y       z     vdW  Elec       q    Type
REMARK                         _______ _______ _______ _____ _____    ______ ____
ROOT
ATOM      5  C   UNL     1       0.068 -11.882   0.000  0.00  0.00    +0.184 C 
ATOM      6  C   UNL     1       1.367 -12.632   0.000  0.00  0.00    +0.063 C 
ATOM      7  C   UNL     1       1.367 -14.132   0.000  0.00  0.00    -0.045 C 
ATOM      8  C   UNL     1       2.666 -14.882   0.000  0.00  0.00    -0.000 C 
ATOM      9  C   UNL     1       3.965 -14.132   0.000  0.00  0.00    -0.023 C 
ATOM     10  C   UNL     1       3.965 -12.632   0.000  0.00  0.00    +0.012 C 
ATOM     11  C   UNL     1       5.264 -11.882   0.000  0.00  0.00    +0.012 C 
ATOM     12  C   UNL     1       0.068 -14.882   0.000  0.00  0.00    -0.023 C 
ATOM     13  C   UNL     1      -1.231 -14.132   0.000  0.00  0.00    +0.031 C 
ATOM     14  C   UNL     1       2.666 -11.882   0.000  0.00  0.00    +0.007 C 
ATOM     26  C   UNL     1      -1.231 -12.632   0.000  0.00  0.00    +0.049 C 
ENDROOT
BRANCH   5   4
ATOM      4  O   UNL     1       0.068 -10.382   0.000  0.00  0.00    -0.461 OA
BRANCH   4   2
ATOM      2  C   UNL     1      -1.231  -9.632   0.000  0.00  0.00    +0.310 C 
ATOM      3  O   UNL     1      -1.231  -8.132   0.000  0.00  0.00    -0.251 OA
BRANCH   2   1
ATOM      1  C   UNL     1      -2.530 -10.382   0.000  0.00  0.00    +0.094 C 
ATOM     27  C   UNL     1      -3.280 -11.681   0.000  0.00  0.00    +0.019 C 
BRANCH   1  28
ATOM     28  C   UNL     1      -3.829  -9.632   0.000  0.00  0.00    +0.011 C 
ATOM     29  C   UNL     1      -3.829  -8.132   0.000  0.00  0.00    +0.004 C 
ENDBRANCH   1  28
ENDBRANCH   2   1
ENDBRANCH   4   2
ENDBRANCH   5   4
BRANCH  14  15
ATOM     15  C   UNL     1       2.666 -10.382   0.000  0.00  0.00    +0.008 C 
BRANCH  15  16
ATOM     16  C   UNL     1       3.965  -9.632   0.000  0.00  0.00    +0.045 C 
BRANCH  16  17
ATOM     17  C   UNL     1       3.965  -8.132   0.000  0.00  0.00    +0.179 C 
ATOM     18  O   UNL     1       5.264  -7.382   0.000  0.00  0.00    -0.461 OA
ATOM     19  C   UNL     1       5.264  -5.882   0.000  0.00  0.00    +0.310 C 
ATOM     20  O   UNL     1       6.563  -5.132   0.000  0.00  0.00    -0.251 OA
ATOM     21  C   UNL     1       3.965  -5.132   0.000  0.00  0.00    +0.152 C 
ATOM     22  C   UNL     1       2.666  -5.882   0.000  0.00  0.00    +0.129 C 
ATOM     25  C   UNL     1       2.666  -7.382   0.000  0.00  0.00    +0.076 C 
BRANCH  22  23
ATOM     23  O   UNL     1       1.367  -5.132   0.000  0.00  0.00    -0.391 OA
ATOM     24  H   UNL     1       1.367  -4.162   0.000  0.00  0.00    +0.210 HD
ENDBRANCH  22  23
ENDBRANCH  16  17
ENDBRANCH  15  16
ENDBRANCH  14  15
TORSDOF 8