REMARK  Name = NSC 3053
REMARK  25 active torsions:
REMARK  status: ('A' for Active; 'I' for Inactive)
REMARK    1  A    between atoms: C_2  and  C_3
REMARK    2  A    between atoms: C_8  and  C_9
REMARK    3  A    between atoms: N_10  and  C_11
REMARK    4  A    between atoms: C_14  and  C_15
REMARK    5  A    between atoms: C_15  and  C_16
REMARK    6  A    between atoms: C_15  and  C_17
REMARK    7  A    between atoms: N_24  and  C_25
REMARK    8  A    between atoms: N_29  and  C_30
REMARK    9  A    between atoms: C_31  and  C_32
REMARK   10  A    between atoms: C_32  and  C_33
REMARK   11  A    between atoms: C_32  and  C_34
REMARK   12  A    between atoms: C_42  and  C_43
REMARK   13  A    between atoms: C_45  and  N_46
REMARK   14  A    between atoms: C_50  and  C_51
REMARK   15  A    between atoms: C_53  and  C_54
REMARK   16  A    between atoms: N_55  and  C_56
REMARK   17  A    between atoms: C_59  and  C_60
REMARK   18  A    between atoms: C_60  and  C_61
REMARK   19  A    between atoms: C_60  and  C_62
REMARK   20  A    between atoms: N_69  and  C_70
REMARK   21  A    between atoms: N_74  and  C_75
REMARK   22  A    between atoms: C_76  and  C_77
REMARK   23  A    between atoms: C_77  and  C_78
REMARK   24  A    between atoms: C_77  and  C_79
REMARK   25  A    between atoms: C_87  and  C_88
REMARK                            x       y       z     vdW  Elec       q    Type
REMARK                         _______ _______ _______ _____ _____    ______ ____
ROOT
ATOM      1  C   UNL     1      -1.673 -23.897   0.000  0.00  0.00    +0.008 A 
ATOM      2  C   UNL     1      -0.374 -24.647   0.000  0.00  0.00    -0.006 A 
ATOM      3  C   UNL     1      -0.373 -26.147   0.000  0.00  0.00    +0.047 C 
ATOM      4  C   UNL     1       0.926 -23.897   0.000  0.00  0.00    +0.157 A 
ATOM      5  O   UNL     1       2.225 -24.647   0.000  0.00  0.00    -0.451 OA
ATOM      6  C   UNL     1       3.524 -23.897   0.000  0.00  0.00    +0.161 A 
ATOM      7  C   UNL     1       3.524 -22.397   0.000  0.00  0.00    +0.121 A 
ATOM      8  C   UNL     1       4.823 -21.647   0.000  0.00  0.00    +0.090 A 
ATOM     47  C   UNL     1       6.122 -22.397   0.000  0.00  0.00    +0.087 A 
ATOM     51  C   UNL     1       6.122 -23.897   0.000  0.00  0.00    +0.207 A 
ATOM     52  O   UNL     1       7.421 -24.647   0.000  0.00  0.00    -0.286 OA
ATOM     53  N   UNL     1       2.225 -21.647   0.000  0.00  0.00    -0.239 NA
ATOM     54  C   UNL     1       4.823 -24.647   0.000  0.00  0.00    +0.042 A 
ATOM     55  C   UNL     1       4.823 -26.147   0.000  0.00  0.00    +0.052 C 
ATOM     56  C   UNL     1       0.926 -22.397   0.000  0.00  0.00    +0.119 A 
ATOM     57  C   UNL     1      -0.374 -21.647   0.000  0.00  0.00    +0.066 A 
ATOM     96  C   UNL     1      -1.673 -22.397   0.000  0.00  0.00    +0.015 A 
ENDROOT
BRANCH   8   9
ATOM      9  C   UNL     1       4.823 -20.147   0.000  0.00  0.00    +0.249 C 
ATOM     10  N   UNL     1       6.122 -19.397   0.000  0.00  0.00    -0.297 N 
ATOM     11  H   UNL     1       7.014 -19.813   0.000  0.00  0.00    +0.150 HD
ATOM     46  O   UNL     1       3.524 -19.397   0.000  0.00  0.00    -0.270 OA
BRANCH  10  12
ATOM     12  C   UNL     1       5.861 -17.920   0.000  0.00  0.00    +0.200 C 
ATOM     13  C   UNL     1       4.452 -17.407   0.000  0.00  0.00    +0.238 C 
ATOM     14  N   UNL     1       4.191 -15.930   0.000  0.00  0.00    -0.302 N 
ATOM     15  H   UNL     1       4.945 -15.297   0.000  0.00  0.00    +0.150 HD
ATOM     16  C   UNL     1       2.782 -15.417   0.000  0.00  0.00    +0.162 C 
ATOM     20  C   UNL     1       2.521 -13.939   0.000  0.00  0.00    +0.237 C 
ATOM     21  O   UNL     1       3.670 -12.975   0.000  0.00  0.00    -0.274 OA
ATOM     22  N   UNL     1       1.112 -13.426   0.000  0.00  0.00    -0.288 N 
ATOM     23  C   UNL     1       0.851 -11.949   0.000  0.00  0.00    +0.162 C 
ATOM     24  C   UNL     1       2.000 -10.985   0.000  0.00  0.00    +0.236 C 
ATOM     25  O   UNL     1       1.740  -9.508   0.000  0.00  0.00    -0.274 OA
ATOM     26  N   UNL     1       3.410 -11.498   0.000  0.00  0.00    -0.294 N 
ATOM     27  C   UNL     1       3.670 -12.975   0.000  0.00  0.00    +0.132 C 
ATOM     28  C   UNL     1       4.559 -10.534   0.000  0.00  0.00    +0.203 C 
ATOM     29  C   UNL     1       5.968 -11.047   0.000  0.00  0.00    +0.233 C 
ATOM     30  O   UNL     1       7.117 -10.083   0.000  0.00  0.00    -0.274 OA
ATOM     31  N   UNL     1       6.229 -12.524   0.000  0.00  0.00    -0.290 N 
ATOM     32  C   UNL     1       5.080 -13.488   0.000  0.00  0.00    +0.133 C 
ATOM     33  C   UNL     1       7.638 -13.037   0.000  0.00  0.00    +0.187 C 
ATOM     37  C   UNL     1       7.899 -14.514   0.000  0.00  0.00    +0.328 C 
ATOM     38  O   UNL     1       6.750 -15.478   0.000  0.00  0.00    -0.458 OA
ATOM     39  O   UNL     1       9.309 -15.027   0.000  0.00  0.00    -0.249 OA
ATOM     40  C   UNL     1      -0.634 -11.740   0.000  0.00  0.00    +0.033 C 
ATOM     41  C   UNL     1      -1.292 -13.089   0.000  0.00  0.00    +0.021 C 
ATOM     42  C   UNL     1      -0.213 -14.131   0.000  0.00  0.00    +0.109 C 
ATOM     43  O   UNL     1       3.303 -18.371   0.000  0.00  0.00    -0.274 OA
ATOM     44  C   UNL     1       7.010 -16.956   0.000  0.00  0.00    +0.203 C 
ATOM     45  C   UNL     1       8.420 -17.469   0.000  0.00  0.00    +0.054 C 
BRANCH  16  17
ATOM     17  C   UNL     1       1.633 -16.381   0.000  0.00  0.00    +0.012 C 
ATOM     18  C   UNL     1       1.893 -17.858   0.000  0.00  0.00    +0.009 C 
ATOM     19  C   UNL     1       0.223 -15.868   0.000  0.00  0.00    +0.009 C 
ENDBRANCH  16  17
BRANCH  33  34
ATOM     34  C   UNL     1       8.787 -12.073   0.000  0.00  0.00    +0.014 C 
ATOM     35  C   UNL     1       8.527 -10.596   0.000  0.00  0.00    +0.009 C 
ATOM     36  C   UNL     1      10.197 -12.586   0.000  0.00  0.00    +0.009 C 
ENDBRANCH  33  34
ENDBRANCH  10  12
ENDBRANCH   8   9
BRANCH  57  58
ATOM     58  C   UNL     1      -0.374 -20.147   0.000  0.00  0.00    +0.247 C 
ATOM     59  N   UNL     1      -1.523 -19.183   0.000  0.00  0.00    -0.297 N 
ATOM     60  H   UNL     1      -1.268 -18.232   0.000  0.00  0.00    +0.150 HD
ATOM     95  O   UNL     1       0.926 -19.397   0.000  0.00  0.00    -0.270 OA
BRANCH  59  61
ATOM     61  C   UNL     1      -3.000 -19.443   0.000  0.00  0.00    +0.200 C 
ATOM     62  C   UNL     1      -3.964 -18.294   0.000  0.00  0.00    +0.238 C 
ATOM     63  N   UNL     1      -5.441 -18.555   0.000  0.00  0.00    -0.302 N 
ATOM     64  H   UNL     1      -5.778 -19.480   0.000  0.00  0.00    +0.150 HD
ATOM     65  C   UNL     1      -6.405 -17.406   0.000  0.00  0.00    +0.162 C 
ATOM     69  C   UNL     1      -7.883 -17.666   0.000  0.00  0.00    +0.237 C 
ATOM     70  O   UNL     1      -8.396 -19.076   0.000  0.00  0.00    -0.274 OA
ATOM     71  N   UNL     1      -8.847 -16.517   0.000  0.00  0.00    -0.288 N 
ATOM     72  C   UNL     1     -10.324 -16.778   0.000  0.00  0.00    +0.162 C 
ATOM     73  C   UNL     1     -10.837 -18.187   0.000  0.00  0.00    +0.236 C 
ATOM     74  O   UNL     1     -12.314 -18.448   0.000  0.00  0.00    -0.274 OA
ATOM     75  N   UNL     1      -9.873 -19.336   0.000  0.00  0.00    -0.294 N 
ATOM     76  C   UNL     1      -8.396 -19.076   0.000  0.00  0.00    +0.132 C 
ATOM     77  C   UNL     1     -10.386 -20.746   0.000  0.00  0.00    +0.203 C 
ATOM     78  C   UNL     1      -9.422 -21.895   0.000  0.00  0.00    +0.233 C 
ATOM     79  O   UNL     1      -9.935 -23.304   0.000  0.00  0.00    -0.274 OA
ATOM     80  N   UNL     1      -7.944 -21.634   0.000  0.00  0.00    -0.290 N 
ATOM     81  C   UNL     1      -7.431 -20.225   0.000  0.00  0.00    +0.133 C 
ATOM     82  C   UNL     1      -6.980 -22.783   0.000  0.00  0.00    +0.187 C 
ATOM     86  C   UNL     1      -5.503 -22.523   0.000  0.00  0.00    +0.328 C 
ATOM     87  O   UNL     1      -4.990 -21.113   0.000  0.00  0.00    -0.458 OA
ATOM     88  O   UNL     1      -4.539 -23.672   0.000  0.00  0.00    -0.249 OA
ATOM     89  C   UNL     1     -11.028 -15.453   0.000  0.00  0.00    +0.033 C 
ATOM     90  C   UNL     1      -9.986 -14.374   0.000  0.00  0.00    +0.021 C 
ATOM     91  C   UNL     1      -8.638 -15.032   0.000  0.00  0.00    +0.109 C 
ATOM     92  O   UNL     1      -3.451 -16.885   0.000  0.00  0.00    -0.274 OA
ATOM     93  C   UNL     1      -3.513 -20.853   0.000  0.00  0.00    +0.203 C 
ATOM     94  C   UNL     1      -2.549 -22.002   0.000  0.00  0.00    +0.054 C 
BRANCH  65  66
ATOM     66  C   UNL     1      -5.892 -15.996   0.000  0.00  0.00    +0.012 C 
ATOM     67  C   UNL     1      -4.415 -15.736   0.000  0.00  0.00    +0.009 C 
ATOM     68  C   UNL     1      -6.856 -14.847   0.000  0.00  0.00    +0.009 C 
ENDBRANCH  65  66
BRANCH  82  83
ATOM     83  C   UNL     1      -7.493 -24.193   0.000  0.00  0.00    +0.014 C 
ATOM     84  C   UNL     1      -6.529 -25.342   0.000  0.00  0.00    +0.009 C 
ATOM     85  C   UNL     1      -8.970 -24.453   0.000  0.00  0.00    +0.009 C 
ENDBRANCH  82  83
ENDBRANCH  59  61
ENDBRANCH  57  58
BRANCH  47  48
ATOM     48  N   UNL     1       7.421 -21.647   0.000  0.00  0.00    -0.354 N 
ATOM     49  H   UNL     1       7.421 -20.663   0.000  0.00  0.00    +0.142 HD
ATOM     50  H   UNL     1       8.273 -22.139   0.000  0.00  0.00    +0.142 HD
ENDBRANCH  47  48
TORSDOF 9