REMARK  Name = NSC 26271
REMARK  5 active torsions:
REMARK  status: ('A' for Active; 'I' for Inactive)
REMARK    1  A    between atoms: P_2  and  N_7
REMARK    2  A    between atoms: N_7  and  C_8
REMARK    3  A    between atoms: N_7  and  C_11
REMARK    4  A    between atoms: C_8  and  C_9
REMARK    5  A    between atoms: C_11  and  C_12
REMARK                            x       y       z     vdW  Elec       q    Type
REMARK                         _______ _______ _______ _____ _____    ______ ____
ROOT
ATOM      1  O   UNL     1       0.794   5.177   0.000  0.00  0.00    -0.305 OA
ATOM      2  P   UNL     1       1.567   3.891   0.000  0.00  0.00    +0.346 P 
ATOM      3  N   UNL     1       0.840   2.579   0.000  0.00  0.00    -0.232 NA
ATOM      4  H   UNL     1       1.366   1.705   0.000  0.00  0.00    +0.133 HD
ATOM      5  C   UNL     1      -0.659   2.552   0.000  0.00  0.00    +0.093 C 
ATOM      6  C   UNL     1      -1.433   3.838   0.000  0.00  0.00    +0.044 C 
ATOM      7  O   UNL     1       2.733   2.947   0.000  0.00  0.00    -0.254 OA
ATOM     15  C   UNL     1      -0.706   5.150   0.000  0.00  0.00    +0.171 C 
ENDROOT
BRANCH   2   8
ATOM      8  N   UNL     1       2.699   4.876   0.000  0.00  0.00    -0.217 NA
BRANCH   8   9
ATOM      9  C   UNL     1       4.117   4.388   0.000  0.00  0.00    +0.111 C 
BRANCH   9  10
ATOM     10  C   UNL     1       5.249   5.372   0.000  0.00  0.00    +0.124 C 
ATOM     11 CL   UNL     1       6.667   4.884   0.000  0.00  0.00    -0.124 Cl
ENDBRANCH   9  10
ENDBRANCH   8   9
BRANCH   8  12
ATOM     12  C   UNL     1       2.412   6.348   0.000  0.00  0.00    +0.111 C 
BRANCH  12  13
ATOM     13  C   UNL     1       3.544   7.332   0.000  0.00  0.00    +0.124 C 
ATOM     14 CL   UNL     1       3.257   8.805   0.000  0.00  0.00    -0.124 Cl
ENDBRANCH  12  13
ENDBRANCH   8  12
ENDBRANCH   2   8
TORSDOF 5