REMARK  Name = 111552
REMARK  4 active torsions:
REMARK  status: ('A' for Active; 'I' for Inactive)
REMARK    1  A    between atoms: C_7  and  O_14
REMARK    2  A    between atoms: C_8  and  O_13
REMARK    3  A    between atoms: C_10  and  C_11
REMARK    4  A    between atoms: C_11  and  C_15
REMARK                            x       y       z     vdW  Elec       q    Type
REMARK                         _______ _______ _______ _____ _____    ______ ____
ROOT
ATOM      1  C   UNL     1      -1.674   5.899   0.000  0.00  0.00    +0.001 A 
ATOM      2  C   UNL     1      -1.674   4.399   0.000  0.00  0.00    +0.001 A 
ATOM      3  C   UNL     1      -0.375   3.650   0.000  0.00  0.00    +0.012 A 
ATOM      4  C   UNL     1       0.924   4.399   0.000  0.00  0.00    +0.027 A 
ATOM      5  C   UNL     1       2.223   3.650   0.000  0.00  0.00    +0.125 A 
ATOM      8  C   UNL     1       3.522   4.399   0.000  0.00  0.00    +0.061 A 
ATOM      9  C   UNL     1       3.522   5.899   0.000  0.00  0.00    +0.063 A 
ATOM     13  C   UNL     1       2.223   6.649   0.000  0.00  0.00    +0.135 A 
ATOM     16  C   UNL     1       0.924   5.899   0.000  0.00  0.00    +0.028 A 
ATOM     17  C   UNL     1      -0.375   6.649   0.000  0.00  0.00    +0.012 A 
ENDROOT
BRANCH   9  10
ATOM     10  C   UNL     1       4.821   6.649   0.000  0.00  0.00    +0.164 C 
ATOM     11  C   UNL     1       6.120   5.899   0.000  0.00  0.00    +0.092 C 
ATOM     12  O   UNL     1       4.821   8.149   0.000  0.00  0.00    -0.292 OA
ENDBRANCH   9  10
BRANCH   5   6
ATOM      6  O   UNL     1       2.223   2.150   0.000  0.00  0.00    -0.506 OA
ATOM      7  H   UNL     1       1.412   1.681   0.000  0.00  0.00    +0.292 HD
ENDBRANCH   5   6
BRANCH  13  14
ATOM     14  O   UNL     1       2.223   8.149   0.000  0.00  0.00    -0.505 OA
ATOM     15  H   UNL     1       3.035   8.618   0.000  0.00  0.00    +0.292 HD
ENDBRANCH  13  14
TORSDOF 3