REMARK  Name = 108783
REMARK  1 active torsions:
REMARK  status: ('A' for Active; 'I' for Inactive)
REMARK    1  A    between atoms: C_15  and  C_21
REMARK                            x       y       z     vdW  Elec       q    Type
REMARK                         _______ _______ _______ _____ _____    ______ ____
ROOT
ATOM      4  C   UNL     1      -5.356  -5.853   0.000  0.00  0.00    +0.027 C 
ATOM      5  C   UNL     1      -4.057  -5.103   0.000  0.00  0.00    +0.100 C 
ATOM      6  C   UNL     1      -2.758  -5.853   0.000  0.00  0.00    +0.256 C 
ATOM      7  N   UNL     1      -1.459  -5.103   0.000  0.00  0.00    -0.236 N 
ATOM      8  H   UNL     1      -0.160  -5.853   0.000  0.00  0.00    +0.159 HD
ATOM      9  C   UNL     1      -1.459  -3.603   0.000  0.00  0.00    +0.313 C 
ATOM     10  O   UNL     1      -0.160  -2.853   0.000  0.00  0.00    -0.252 OA
ATOM     11  N   UNL     1      -2.758  -2.853   0.000  0.00  0.00    -0.236 N 
ATOM     12  H   UNL     1      -2.758  -1.353   0.000  0.00  0.00    +0.159 HD
ATOM     13  O   UNL     1      -2.758  -7.353   0.000  0.00  0.00    -0.270 OA
ATOM     14  C   UNL     1      -4.057  -3.603   0.000  0.00  0.00    +0.256 C 
ATOM     15  O   UNL     1      -5.356  -2.853   0.000  0.00  0.00    -0.270 OA
ENDROOT
BRANCH   4   3
ATOM      1  S   UNL     1      -8.280  -3.299   0.000  0.00  0.00    -0.096 S 
ATOM      2  C   UNL     1      -6.812  -3.611   0.000  0.00  0.00    +0.054 A 
ATOM      3  C   UNL     1      -6.656  -5.103   0.000  0.00  0.00    -0.009 A 
ATOM     16  C   UNL     1      -8.026  -5.713   0.000  0.00  0.00    -0.004 A 
ATOM     17  C   UNL     1      -8.489  -7.140   0.000  0.00  0.00    +0.009 A 
ATOM     18  C   UNL     1      -9.957  -7.452   0.000  0.00  0.00    +0.001 A 
ATOM     19  C   UNL     1     -10.960  -6.337   0.000  0.00  0.00    +0.001 A 
ATOM     20  C   UNL     1     -10.497  -4.910   0.000  0.00  0.00    +0.015 A 
ATOM     21  C   UNL     1      -9.030  -4.598   0.000  0.00  0.00    +0.020 A 
ENDBRANCH   4   3
TORSDOF 1