REMARK  Name = 110562
REMARK  3 active torsions:
REMARK  status: ('A' for Active; 'I' for Inactive)
REMARK    1  A    between atoms: C_3  and  O_16
REMARK    2  A    between atoms: C_12  and  S_13
REMARK    3  A    between atoms: S_13  and  O_16
REMARK                            x       y       z     vdW  Elec       q    Type
REMARK                         _______ _______ _______ _____ _____    ______ ____
ROOT
ATOM      1 BR   UNL     1      -5.571  -2.350   0.000  0.00  0.00    -0.050 Br
ATOM      2  C   UNL     1      -5.571  -0.851   0.000  0.00  0.00    +0.027 A 
ATOM      3  C   UNL     1      -6.870  -0.101   0.000  0.00  0.00    +0.019 A 
ATOM      4  C   UNL     1      -6.870   1.400   0.000  0.00  0.00    +0.052 A 
ATOM      5  C   UNL     1      -5.571   2.150   0.000  0.00  0.00    +0.182 A 
ATOM     11  C   UNL     1      -4.272   1.400   0.000  0.00  0.00    +0.116 A 
ATOM     12  N   UNL     1      -2.973   2.150   0.000  0.00  0.00    -0.251 NA
ATOM     13  C   UNL     1      -1.674   1.400   0.000  0.00  0.00    +0.111 A 
ATOM     14  C   UNL     1      -1.674  -0.101   0.000  0.00  0.00    +0.020 A 
ATOM     15  C   UNL     1      -2.973  -0.851   0.000  0.00  0.00    +0.013 A 
ATOM     16  C   UNL     1      -4.272  -0.101   0.000  0.00  0.00    +0.018 A 
ENDROOT
BRANCH   5   6
ATOM      6  O   UNL     1      -5.571   3.650   0.000  0.00  0.00    -0.344 OA
BRANCH   6   7
ATOM      7  S   UNL     1      -6.870   4.399   0.000  0.00  0.00    +0.118 S 
ATOM      8  O   UNL     1      -6.120   5.699   0.000  0.00  0.00    -0.137 OA
ATOM      9  O   UNL     1      -8.169   5.149   0.000  0.00  0.00    -0.137 OA
ATOM     10  C   UNL     1      -7.620   3.100   0.000  0.00  0.00    +0.242 C 
ENDBRANCH   6   7
ENDBRANCH   5   6
TORSDOF 2