REMARK  Name = 110899
REMARK  4 active torsions:
REMARK  status: ('A' for Active; 'I' for Inactive)
REMARK    1  A    between atoms: C_4  and  O_16
REMARK    2  A    between atoms: C_8  and  C_17
REMARK    3  A    between atoms: C_12  and  S_13
REMARK    4  A    between atoms: S_13  and  O_16
REMARK                            x       y       z     vdW  Elec       q    Type
REMARK                         _______ _______ _______ _____ _____    ______ ____
ROOT
ATOM      1  O   UNL     1      -3.348  -1.299   0.000  0.00  0.00    -0.422 OA
ATOM      2  C   UNL     1      -2.049  -2.049   0.000  0.00  0.00    +0.337 A 
ATOM      3  C   UNL     1      -2.049  -3.549   0.000  0.00  0.00    +0.096 A 
ATOM      4  C   UNL     1      -3.348  -4.299   0.000  0.00  0.00    -0.033 A 
ATOM      5  C   UNL     1      -3.348  -5.799   0.000  0.00  0.00    +0.045 C 
ATOM      6  C   UNL     1      -4.647  -3.549   0.000  0.00  0.00    +0.021 A 
ATOM      7  C   UNL     1      -5.946  -4.299   0.000  0.00  0.00    +0.015 A 
ATOM      8  C   UNL     1      -7.245  -3.549   0.000  0.00  0.00    +0.049 A 
ATOM      9  C   UNL     1      -7.245  -2.049   0.000  0.00  0.00    +0.160 A 
ATOM     15  C   UNL     1      -5.946  -1.299   0.000  0.00  0.00    +0.095 A 
ATOM     16  O   UNL     1      -0.750  -1.299   0.000  0.00  0.00    -0.245 OA
ATOM     17  C   UNL     1      -4.647  -2.049   0.000  0.00  0.00    +0.143 A 
ENDROOT
BRANCH   9  10
ATOM     10  O   UNL     1      -8.544  -1.299   0.000  0.00  0.00    -0.346 OA
BRANCH  10  11
ATOM     11  S   UNL     1      -9.843  -2.049   0.000  0.00  0.00    +0.118 S 
ATOM     12  O   UNL     1      -9.093  -3.348   0.000  0.00  0.00    -0.137 OA
ATOM     13  O   UNL     1     -11.142  -2.799   0.000  0.00  0.00    -0.137 OA
ATOM     14  C   UNL     1     -10.593  -0.750   0.000  0.00  0.00    +0.242 C 
ENDBRANCH  10  11
ENDBRANCH   9  10
TORSDOF 2