REMARK  Name = 112541
REMARK  5 active torsions:
REMARK  status: ('A' for Active; 'I' for Inactive)
REMARK    1  A    between atoms: C_8  and  O_23
REMARK    2  A    between atoms: C_10  and  C_21
REMARK    3  A    between atoms: C_11  and  C_21
REMARK    4  A    between atoms: C_12  and  C_14
REMARK    5  A    between atoms: C_20  and  C_22
REMARK                            x       y       z     vdW  Elec       q    Type
REMARK                         _______ _______ _______ _____ _____    ______ ____
ROOT
ATOM      1  O   UNL     1      -2.973  -6.649   0.000  0.00  0.00    -0.265 OA
ATOM      2  C   UNL     1      -1.674  -7.399   0.000  0.00  0.00    +0.277 A 
ATOM      3  C   UNL     1      -0.375  -6.649   0.000  0.00  0.00    +0.047 A 
ATOM     13  C   UNL     1       0.924  -7.399   0.000  0.00  0.00    +0.056 A 
ATOM     20  N   UNL     1       0.924  -8.899   0.000  0.00  0.00    -0.343 N 
ATOM     21  H   UNL     1       1.777  -9.392   0.000  0.00  0.00    +0.167 HD
ATOM     22  C   UNL     1      -0.375  -9.649   0.000  0.00  0.00    +0.108 A 
ATOM     23  C   UNL     1      -0.375 -11.150   0.000  0.00  0.00    +0.086 C 
ATOM     24  N   UNL     1      -1.674  -8.899   0.000  0.00  0.00    -0.196 NA
ENDROOT
BRANCH  13  14
ATOM     14  C   UNL     1       2.223  -6.649   0.000  0.00  0.00    -0.001 A 
ATOM     15  C   UNL     1       2.223  -5.149   0.000  0.00  0.00    +0.010 A 
ATOM     16  C   UNL     1       3.522  -4.399   0.000  0.00  0.00    +0.001 A 
ATOM     17  C   UNL     1       4.821  -5.149   0.000  0.00  0.00    +0.000 A 
ATOM     18  C   UNL     1       4.821  -6.649   0.000  0.00  0.00    +0.001 A 
ATOM     19  C   UNL     1       3.522  -7.399   0.000  0.00  0.00    +0.010 A 
ENDBRANCH  13  14
BRANCH   3   4
ATOM      4  C   UNL     1      -0.375  -5.149   0.000  0.00  0.00    +0.081 C 
BRANCH   4   5
ATOM      5  C   UNL     1      -1.785  -4.636   0.000  0.00  0.00    -0.001 A 
ATOM      6  C   UNL     1      -2.934  -5.601   0.000  0.00  0.00    +0.007 A 
ATOM      7  C   UNL     1      -4.343  -5.088   0.000  0.00  0.00    +0.001 A 
ATOM      8  C   UNL     1      -4.604  -3.610   0.000  0.00  0.00    +0.004 A 
ATOM      9  C   UNL     1      -3.455  -2.646   0.000  0.00  0.00    +0.046 A 
ATOM     10  C   UNL     1      -2.045  -3.159   0.000  0.00  0.00    +0.120 A 
BRANCH  10  11
ATOM     11  O   UNL     1      -0.896  -2.195   0.000  0.00  0.00    -0.506 OA
ATOM     12  H   UNL     1      -0.015  -2.516   0.000  0.00  0.00    +0.292 HD
ENDBRANCH  10  11
ENDBRANCH   4   5
ENDBRANCH   3   4
TORSDOF 4