REMARK  Name = 107582
REMARK  4 active torsions:
REMARK  status: ('A' for Active; 'I' for Inactive)
REMARK    1  A    between atoms: N_2  and  C_7
REMARK    2  A    between atoms: C_10  and  N_17
REMARK    3  A    between atoms: C_20  and  C_23
REMARK    4  A    between atoms: N_21  and  O_22
REMARK                            x       y       z     vdW  Elec       q    Type
REMARK                         _______ _______ _______ _____ _____    ______ ____
ROOT
ATOM      1  O   UNL     1      -9.764  -2.842   0.000  0.00  0.00    -0.287 OA
ATOM      2  C   UNL     1      -9.300  -4.269   0.000  0.00  0.00    +0.195 C 
ATOM      3  C   UNL     1     -10.182  -5.482   0.000  0.00  0.00    +0.036 A 
ATOM      4  C   UNL     1     -11.674  -5.639   0.000  0.00  0.00    +0.096 A 
ATOM      5  C   UNL     1     -12.284  -7.009   0.000  0.00  0.00    +0.274 A 
ATOM      9  C   UNL     1     -11.402  -8.223   0.000  0.00  0.00    +0.085 A 
ATOM     10  C   UNL     1      -9.911  -8.066   0.000  0.00  0.00    +0.016 A 
ATOM     11  C   UNL     1      -9.300  -6.696   0.000  0.00  0.00    -0.006 A 
ATOM     12  C   UNL     1      -7.874  -6.232   0.000  0.00  0.00    -0.005 A 
ATOM     13  C   UNL     1      -6.575  -6.982   0.000  0.00  0.00    +0.028 A 
ATOM     14  C   UNL     1      -5.276  -6.232   0.000  0.00  0.00    +0.069 A 
ATOM     15  C   UNL     1      -5.276  -4.732   0.000  0.00  0.00    +0.191 A 
ATOM     16  C   UNL     1      -6.575  -3.982   0.000  0.00  0.00    +0.069 A 
ATOM     27 BR   UNL     1      -3.977  -6.982   0.000  0.00  0.00    -0.046 Br
ATOM     28  C   UNL     1      -7.874  -4.732   0.000  0.00  0.00    +0.034 A 
ENDROOT
BRANCH  15  17
ATOM     17  N   UNL     1      -3.977  -3.982   0.000  0.00  0.00    -0.032 NA
ATOM     18  C   UNL     1      -3.977  -2.482   0.000  0.00  0.00    +0.430 C 
ATOM     23  N   UNL     1      -5.276  -1.732   0.000  0.00  0.00    -0.125 N 
ATOM     24  H   UNL     1      -5.276  -0.748   0.000  0.00  0.00    +0.348 HD
BRANCH  18  19
ATOM     19  C   UNL     1      -2.678  -1.732   0.000  0.00  0.00    +0.502 C 
ATOM     20  F   UNL     1      -3.428  -0.433   0.000  0.00  0.00    -0.160 F 
ATOM     21  F   UNL     1      -1.379  -0.982   0.000  0.00  0.00    -0.160 F 
ATOM     22  F   UNL     1      -1.928  -3.031   0.000  0.00  0.00    -0.160 F 
ENDBRANCH  18  19
BRANCH  23  25
ATOM     25  O   UNL     1      -6.575  -2.482   0.000  0.00  0.00    -0.209 OA
ATOM     26  H   UNL     1      -7.415  -1.997   0.000  0.00  0.00    +0.271 HD
ENDBRANCH  23  25
ENDBRANCH  15  17
BRANCH   5   6
ATOM      6  N   UNL     1     -13.776  -7.166   0.000  0.00  0.00    +0.080 N 
ATOM      7  O   UNL     1     -14.658  -5.953   0.000  0.00  0.00    +0.041 OA
ATOM      8  O   UNL     1     -14.386  -8.537   0.000  0.00  0.00    -0.576 OA
ENDBRANCH   5   6
TORSDOF 4