REMARK  Name = 109813
REMARK  4 active torsions:
REMARK  status: ('A' for Active; 'I' for Inactive)
REMARK    1  A    between atoms: C_2  and  C_11
REMARK    2  A    between atoms: C_7  and  O_13
REMARK    3  A    between atoms: C_8  and  C_14
REMARK    4  A    between atoms: C_10  and  C_12
REMARK                            x       y       z     vdW  Elec       q    Type
REMARK                         _______ _______ _______ _____ _____    ______ ____
ROOT
ATOM      1  N   UNL     1      -4.422  -2.250   0.000  0.00  0.00    -0.251 NA
ATOM      2  C   UNL     1      -5.721  -3.000   0.000  0.00  0.00    +0.078 A 
ATOM      3  C   UNL     1      -5.721  -4.500   0.000  0.00  0.00    +0.045 A 
ATOM      4  C   UNL     1      -7.021  -5.250   0.000  0.00  0.00    -0.038 A 
ATOM      5  C   UNL     1      -7.021  -6.750   0.000  0.00  0.00    +0.044 C 
ATOM      6  C   UNL     1      -8.319  -4.500   0.000  0.00  0.00    +0.004 A 
ATOM      7  C   UNL     1      -8.319  -3.000   0.000  0.00  0.00    +0.006 A 
ATOM      8  C   UNL     1      -4.422  -5.250   0.000  0.00  0.00    +0.128 A 
ATOM     11  C   UNL     1      -3.123  -4.500   0.000  0.00  0.00    +0.069 A 
ATOM     12  C   UNL     1      -7.021  -2.250   0.000  0.00  0.00    -0.024 A 
ATOM     13  C   UNL     1      -7.021  -0.750   0.000  0.00  0.00    +0.046 C 
ATOM     14  C   UNL     1      -3.123  -3.000   0.000  0.00  0.00    +0.042 A 
ATOM     15  C   UNL     1      -1.824  -2.250   0.000  0.00  0.00    +0.066 C 
ENDROOT
BRANCH   8   9
ATOM      9  O   UNL     1      -4.422  -6.750   0.000  0.00  0.00    -0.506 OA
ATOM     10  H   UNL     1      -5.234  -7.218   0.000  0.00  0.00    +0.292 HD
ENDBRANCH   8   9
TORSDOF 1