REMARK  Name = 112125
REMARK  3 active torsions:
REMARK  status: ('A' for Active; 'I' for Inactive)
REMARK    1  A    between atoms: C_11  and  C_12
REMARK    2  A    between atoms: C_13  and  C_14
REMARK    3  A    between atoms: C_19  and  C_20
REMARK                            x       y       z     vdW  Elec       q    Type
REMARK                         _______ _______ _______ _____ _____    ______ ____
ROOT
ATOM      7  C   UNL     1      -8.957  -3.750   0.000  0.00  0.00    +0.183 A 
ATOM      8  N   UNL     1      -7.658  -3.000   0.000  0.00  0.00    -0.205 NA
ATOM      9  C   UNL     1      -6.359  -3.750   0.000  0.00  0.00    +0.183 A 
ATOM     16  N   UNL     1      -6.359  -5.250   0.000  0.00  0.00    -0.205 NA
ATOM     17  C   UNL     1      -7.658  -6.000   0.000  0.00  0.00    +0.183 A 
ATOM     24  N   UNL     1      -8.957  -5.250   0.000  0.00  0.00    -0.205 NA
ENDROOT
BRANCH   7   6
ATOM      1  N   UNL     1     -10.256  -1.500   0.000  0.00  0.00    -0.252 NA
ATOM      2  C   UNL     1     -11.555  -0.750   0.000  0.00  0.00    +0.111 A 
ATOM      3  C   UNL     1     -12.854  -1.500   0.000  0.00  0.00    +0.020 A 
ATOM      4  C   UNL     1     -12.854  -3.000   0.000  0.00  0.00    +0.004 A 
ATOM      5  C   UNL     1     -11.555  -3.750   0.000  0.00  0.00    +0.031 A 
ATOM      6  C   UNL     1     -10.256  -3.000   0.000  0.00  0.00    +0.108 A 
ENDBRANCH   7   6
BRANCH   9  10
ATOM     10  C   UNL     1      -5.060  -3.000   0.000  0.00  0.00    +0.108 A 
ATOM     11  C   UNL     1      -3.761  -3.750   0.000  0.00  0.00    +0.031 A 
ATOM     12  C   UNL     1      -2.462  -3.000   0.000  0.00  0.00    +0.004 A 
ATOM     13  C   UNL     1      -2.462  -1.500   0.000  0.00  0.00    +0.020 A 
ATOM     14  C   UNL     1      -3.761  -0.750   0.000  0.00  0.00    +0.111 A 
ATOM     15  N   UNL     1      -5.060  -1.500   0.000  0.00  0.00    -0.252 NA
ENDBRANCH   9  10
BRANCH  17  18
ATOM     18  C   UNL     1      -7.658  -7.500   0.000  0.00  0.00    +0.108 A 
ATOM     19  C   UNL     1      -8.957  -8.250   0.000  0.00  0.00    +0.031 A 
ATOM     20  C   UNL     1      -8.957  -9.750   0.000  0.00  0.00    +0.004 A 
ATOM     21  C   UNL     1      -7.658 -10.500   0.000  0.00  0.00    +0.020 A 
ATOM     22  C   UNL     1      -6.359  -9.750   0.000  0.00  0.00    +0.111 A 
ATOM     23  N   UNL     1      -6.359  -8.250   0.000  0.00  0.00    -0.252 NA
ENDBRANCH  17  18
TORSDOF 3