REMARK  Name = 108655
REMARK  7 active torsions:
REMARK  status: ('A' for Active; 'I' for Inactive)
REMARK    1  A    between atoms: C_1  and  C_2
REMARK    2  A    between atoms: C_1  and  C_3
REMARK    3  A    between atoms: C_4  and  C_5
REMARK    4  A    between atoms: C_5  and  C_6
REMARK    5  A    between atoms: C_6  and  C_7
REMARK    6  A    between atoms: C_7  and  C_8
REMARK    7  A    between atoms: C_9  and  C_10
REMARK                            x       y       z     vdW  Elec       q    Type
REMARK                         _______ _______ _______ _____ _____    ______ ____
ROOT
ATOM      5  C   UNL     1      -4.774   4.172   0.000  0.00  0.00    -0.067 C 
ATOM      6  C   UNL     1      -5.524   5.471   0.000  0.00  0.00    +0.066 C 
ATOM     12  C   UNL     1      -3.275   4.172   0.000  0.00  0.00    +0.039 C 
ENDROOT
BRANCH   6   7
ATOM      7  C   UNL     1      -7.024   5.471   0.000  0.00  0.00    +0.234 C 
ATOM      8  N   UNL     1      -7.774   4.172   0.000  0.00  0.00    -0.326 N 
ATOM      9  H   UNL     1      -7.282   3.319   0.000  0.00  0.00    +0.145 HD
ATOM     10  H   UNL     1      -8.759   4.172   0.000  0.00  0.00    +0.145 HD
ATOM     11  O   UNL     1      -7.774   6.770   0.000  0.00  0.00    -0.271 OA
ENDBRANCH   6   7
BRANCH   5   4
ATOM      4  C   UNL     1      -5.524   2.873   0.000  0.00  0.00    +0.034 C 
BRANCH   4   3
ATOM      3  C   UNL     1      -4.774   1.574   0.000  0.00  0.00    +0.031 C 
BRANCH   3   2
ATOM      1  C   UNL     1      -2.525   0.275   0.000  0.00  0.00    -0.080 C 
ATOM      2  C   UNL     1      -3.275   1.574   0.000  0.00  0.00    -0.028 C 
ATOM     13  C   UNL     1      -1.025   0.275   0.000  0.00  0.00    +0.038 C 
ATOM     14  C   UNL     1      -3.275  -1.025   0.000  0.00  0.00    +0.038 C 
ENDBRANCH   3   2
ENDBRANCH   4   3
ENDBRANCH   5   4
TORSDOF 4