REMARK  Name = 108235
REMARK  4 active torsions:
REMARK  status: ('A' for Active; 'I' for Inactive)
REMARK    1  A    between atoms: N_2  and  C_5
REMARK    2  A    between atoms: N_3  and  C_10
REMARK    3  A    between atoms: C_8  and  N_15
REMARK    4  A    between atoms: C_12  and  O_17
REMARK                            x       y       z     vdW  Elec       q    Type
REMARK                         _______ _______ _______ _____ _____    ______ ____
ROOT
ATOM      1  N   UNL     1      -9.843   6.000   0.000  0.00  0.00    -0.216 NA
ATOM      2  C   UNL     1      -9.843   7.500   0.000  0.00  0.00    +0.118 A 
ATOM      6  C   UNL     1      -8.544   8.250   0.000  0.00  0.00    +0.045 A 
ATOM      7  C   UNL     1      -7.245   7.500   0.000  0.00  0.00    +0.036 A 
ATOM      8  C   UNL     1      -7.245   6.000   0.000  0.00  0.00    +0.126 A 
ATOM     19  C   UNL     1      -8.544   5.250   0.000  0.00  0.00    +0.146 A 
ATOM     20  N   UNL     1      -8.544   3.750   0.000  0.00  0.00    -0.341 N 
ATOM     21  H   UNL     1      -7.692   3.258   0.000  0.00  0.00    +0.144 HD
ATOM     22  H   UNL     1      -9.397   3.258   0.000  0.00  0.00    +0.144 HD
ENDROOT
BRANCH   2   3
ATOM      3  N   UNL     1     -11.142   8.250   0.000  0.00  0.00    -0.343 N 
ATOM      4  H   UNL     1     -11.995   7.758   0.000  0.00  0.00    +0.144 HD
ATOM      5  H   UNL     1     -11.142   9.234   0.000  0.00  0.00    +0.144 HD
ENDBRANCH   2   3
BRANCH   8   9
ATOM      9  N   UNL     1      -5.946   5.250   0.000  0.00  0.00    -0.146 NA
ATOM     10  N   UNL     1      -5.946   3.750   0.000  0.00  0.00    -0.149 NA
BRANCH  10  11
ATOM     11  C   UNL     1      -4.647   3.000   0.000  0.00  0.00    +0.086 A 
ATOM     12  C   UNL     1      -4.647   1.500   0.000  0.00  0.00    +0.033 A 
ATOM     13  C   UNL     1      -3.348   0.750   0.000  0.00  0.00    +0.047 A 
ATOM     14  C   UNL     1      -2.049   1.500   0.000  0.00  0.00    +0.117 A 
ATOM     17  C   UNL     1      -2.049   3.000   0.000  0.00  0.00    +0.047 A 
ATOM     18  C   UNL     1      -3.348   3.750   0.000  0.00  0.00    +0.033 A 
BRANCH  14  15
ATOM     15  O   UNL     1      -0.750   0.750   0.000  0.00  0.00    -0.507 OA
ATOM     16  H   UNL     1      -0.750  -0.187   0.000  0.00  0.00    +0.292 HD
ENDBRANCH  14  15
ENDBRANCH  10  11
ENDBRANCH   8   9
TORSDOF 4