REMARK  Name = 109885
REMARK  0 active torsions:
REMARK  status: ('A' for Active; 'I' for Inactive)
REMARK                            x       y       z     vdW  Elec       q    Type
REMARK                         _______ _______ _______ _____ _____    ______ ____
ROOT
ATOM      1  N   UNL     1      -1.025   3.275   0.000  0.00  0.00    -0.203 NA
ATOM      2  C   UNL     1       0.275   2.525   0.000  0.00  0.00    +0.217 A 
ATOM      3  N   UNL     1       0.275   1.025   0.000  0.00  0.00    -0.327 N 
ATOM      4  H   UNL     1       1.127   0.532   0.000  0.00  0.00    +0.145 HD
ATOM      5  H   UNL     1      -0.578   0.532   0.000  0.00  0.00    +0.145 HD
ATOM      6  N   UNL     1       1.574   3.275   0.000  0.00  0.00    -0.181 NA
ATOM      7  C   UNL     1       1.574   4.774   0.000  0.00  0.00    +0.222 A 
ATOM      8  N   UNL     1       2.873   5.524   0.000  0.00  0.00    -0.295 N 
ATOM      9  C   UNL     1       4.172   4.774   0.000  0.00  0.00    +0.136 C 
ATOM     10  C   UNL     1       5.471   5.524   0.000  0.00  0.00    +0.179 C 
ATOM     11  O   UNL     1       5.471   7.024   0.000  0.00  0.00    -0.377 OA
ATOM     12  C   UNL     1       4.172   7.774   0.000  0.00  0.00    +0.179 C 
ATOM     13  C   UNL     1       2.873   7.024   0.000  0.00  0.00    +0.136 C 
ATOM     14  N   UNL     1       0.275   5.524   0.000  0.00  0.00    -0.203 NA
ATOM     15  C   UNL     1      -1.025   4.774   0.000  0.00  0.00    +0.228 A 
ENDROOT
TORSDOF 0