REMARK  Name = 11150
REMARK  4 active torsions:
REMARK  status: ('A' for Active; 'I' for Inactive)
REMARK    1  A    between atoms: C_4  and  C_16
REMARK    2  A    between atoms: C_9  and  C_16
REMARK    3  A    between atoms: C_11  and  O_15
REMARK    4  A    between atoms: C_12  and  O_14
REMARK                            x       y       z     vdW  Elec       q    Type
REMARK                         _______ _______ _______ _____ _____    ______ ____
ROOT
ATOM      7  C   UNL     1       4.922  -2.525   0.000  0.00  0.00    -0.001 A 
ATOM      8  C   UNL     1       3.623  -1.775   0.000  0.00  0.00    +0.124 A 
ATOM     11  C   UNL     1       3.623  -0.275   0.000  0.00  0.00    +0.091 A 
ATOM     12  C   UNL     1       4.922   0.475   0.000  0.00  0.00    +0.120 A 
ATOM     15  C   UNL     1       6.221  -0.275   0.000  0.00  0.00    +0.046 A 
ATOM     16  C   UNL     1       6.221  -1.775   0.000  0.00  0.00    +0.011 A 
ENDROOT
BRANCH   8   9
ATOM      9  O   UNL     1       2.324  -2.525   0.000  0.00  0.00    -0.506 OA
ATOM     10  H   UNL     1       1.512  -2.056   0.000  0.00  0.00    +0.292 HD
ENDBRANCH   8   9
BRANCH  12  13
ATOM     13  O   UNL     1       4.922   1.976   0.000  0.00  0.00    -0.507 OA
ATOM     14  H   UNL     1       5.733   2.444   0.000  0.00  0.00    +0.292 HD
ENDBRANCH  12  13
BRANCH   7   6
ATOM      6  C   UNL     1       4.922  -4.024   0.000  0.00  0.00    +0.074 C 
BRANCH   6   5
ATOM      1 CL   UNL     1      10.118  -7.024   0.000  0.00  0.00    -0.084 Cl
ATOM      2  C   UNL     1       8.819  -6.274   0.000  0.00  0.00    +0.041 A 
ATOM      3  C   UNL     1       7.520  -7.024   0.000  0.00  0.00    +0.020 A 
ATOM      4  C   UNL     1       6.221  -6.274   0.000  0.00  0.00    +0.005 A 
ATOM      5  C   UNL     1       6.221  -4.774   0.000  0.00  0.00    -0.043 A 
ATOM     17  C   UNL     1       7.520  -4.024   0.000  0.00  0.00    +0.005 A 
ATOM     18  C   UNL     1       8.819  -4.774   0.000  0.00  0.00    +0.020 A 
ENDBRANCH   6   5
ENDBRANCH   7   6
TORSDOF 4