REMARK  Name = 109176
REMARK  2 active torsions:
REMARK  status: ('A' for Active; 'I' for Inactive)
REMARK    1  A    between atoms: N_2  and  C_7
REMARK    2  A    between atoms: C_8  and  N_9
REMARK                            x       y       z     vdW  Elec       q    Type
REMARK                         _______ _______ _______ _____ _____    ______ ____
ROOT
ATOM      1  N   UNL     1       0.588   4.544   0.000  0.00  0.00    -0.185 NA
ATOM      2  N   UNL     1       1.052   3.118   0.000  0.00  0.00    -0.192 N 
ATOM      3  C   UNL     1       0.170   1.904   0.000  0.00  0.00    +0.161 C 
ATOM      4  C   UNL     1       2.552   3.118   0.000  0.00  0.00    +0.268 C 
ATOM      5  C   UNL     1       3.015   4.544   0.000  0.00  0.00    +0.072 C 
ATOM      6  C   UNL     1       4.442   5.008   0.000  0.00  0.00    +0.090 C 
ATOM     14  O   UNL     1       3.433   1.904   0.000  0.00  0.00    -0.268 OA
ATOM     15  C   UNL     1       1.802   5.426   0.000  0.00  0.00    +0.145 C 
ENDROOT
BRANCH   6   7
ATOM      7  N   UNL     1       5.556   4.004   0.000  0.00  0.00    -0.275 N 
ATOM      8  H   UNL     1       5.352   3.041   0.000  0.00  0.00    +0.156 HD
ATOM      9  C   UNL     1       6.983   4.468   0.000  0.00  0.00    +0.301 C 
ATOM     10  N   UNL     1       7.295   5.935   0.000  0.00  0.00    -0.313 N 
ATOM     11  H   UNL     1       6.563   6.594   0.000  0.00  0.00    +0.146 HD
ATOM     12  H   UNL     1       8.231   6.239   0.000  0.00  0.00    +0.146 HD
ATOM     13  O   UNL     1       8.098   3.464   0.000  0.00  0.00    -0.253 OA
ENDBRANCH   6   7
TORSDOF 1