REMARK  Name = 10768
REMARK  11 active torsions:
REMARK  status: ('A' for Active; 'I' for Inactive)
REMARK    1  A    between atoms: C_3  and  C_15
REMARK    2  A    between atoms: C_4  and  C_14
REMARK    3  A    between atoms: C_5  and  C_12
REMARK    4  A    between atoms: CA_6  and  C_7
REMARK    5  A    between atoms: C_7  and  O_8
REMARK    6  A    between atoms: C_9  and  C_10
REMARK    7  A    between atoms: C_9  and  O_11
REMARK    8  A    between atoms: O_11  and  C_12
REMARK    9  A    between atoms: C_15  and  O_17
REMARK   10  A    between atoms: O_17  and  C_18
REMARK   11  A    between atoms: C_18  and  C_19
REMARK                            x       y       z     vdW  Elec       q    Type
REMARK                         _______ _______ _______ _____ _____    ______ ____
ROOT
ATOM      1  N   UNL     1      -5.159  -3.965   0.000  0.00  0.00    -0.350 N 
ATOM      2  H   UNL     1      -5.159  -2.465   0.000  0.00  0.00    +0.166 HD
ATOM      3  CA  UNL     1      -6.372  -4.846   0.000  0.00  0.00    +0.057 A 
ATOM      7  C   UNL     1      -5.909  -6.273   0.000  0.00  0.00    +0.085 A 
ATOM     13  C   UNL     1      -4.409  -6.273   0.000  0.00  0.00    -0.004 A 
ATOM     14  C   UNL     1      -3.527  -7.487   0.000  0.00  0.00    +0.047 C 
ATOM     15  C   UNL     1      -3.945  -4.846   0.000  0.00  0.00    +0.128 A 
ENDROOT
BRANCH   7   8
ATOM      8  C   UNL     1      -6.791  -7.487   0.000  0.00  0.00    +0.341 C 
ATOM      9  O   UNL     1      -6.181  -8.857   0.000  0.00  0.00    -0.245 OA
BRANCH   8  10
ATOM     10  O   UNL     1      -8.282  -7.330   0.000  0.00  0.00    -0.461 OA
BRANCH  10  11
ATOM     11  C   UNL     1      -9.164  -8.543   0.000  0.00  0.00    +0.229 C 
ATOM     12  C   UNL     1     -10.656  -8.387   0.000  0.00  0.00    +0.048 C 
ENDBRANCH  10  11
ENDBRANCH   8  10
ENDBRANCH   7   8
BRANCH  15  16
ATOM     16  C   UNL     1      -2.519  -4.383   0.000  0.00  0.00    +0.356 C 
ATOM     20  O   UNL     1      -1.404  -5.387   0.000  0.00  0.00    -0.243 OA
BRANCH  16  17
ATOM     17  O   UNL     1      -2.207  -2.916   0.000  0.00  0.00    -0.460 OA
BRANCH  17  18
ATOM     18  C   UNL     1      -0.780  -2.452   0.000  0.00  0.00    +0.229 C 
ATOM     19  C   UNL     1       0.334  -3.456   0.000  0.00  0.00    +0.048 C 
ENDBRANCH  17  18
ENDBRANCH  16  17
ENDBRANCH  15  16
BRANCH   3   4
ATOM      4  C   UNL     1      -7.799  -4.383   0.000  0.00  0.00    +0.209 C 
BRANCH   4   5
ATOM      5  O   UNL     1      -8.914  -5.387   0.000  0.00  0.00    -0.389 OA
ATOM      6  H   UNL     1      -9.836  -5.087   0.000  0.00  0.00    +0.210 HD
ENDBRANCH   4   5
ENDBRANCH   3   4
TORSDOF 8