REMARK  Name = 10995
REMARK  2 active torsions:
REMARK  status: ('A' for Active; 'I' for Inactive)
REMARK    1  A    between atoms: C_6  and  O_12
REMARK    2  A    between atoms: O_12  and  C_13
REMARK                            x       y       z     vdW  Elec       q    Type
REMARK                         _______ _______ _______ _____ _____    ______ ____
ROOT
ATOM      1 BR   UNL     1      -4.357   0.750   0.000  0.00  0.00    -0.050 Br
ATOM      2  C   UNL     1      -4.357   2.250   0.000  0.00  0.00    +0.022 A 
ATOM      3  C   UNL     1      -5.656   3.000   0.000  0.00  0.00    +0.019 A 
ATOM      4  C   UNL     1      -5.656   4.500   0.000  0.00  0.00    +0.047 A 
ATOM      5  C   UNL     1      -4.357   5.250   0.000  0.00  0.00    +0.131 A 
ATOM      8  C   UNL     1      -3.058   4.500   0.000  0.00  0.00    +0.063 A 
ATOM      9  C   UNL     1      -1.632   4.963   0.000  0.00  0.00    +0.167 C 
ATOM     10  C   UNL     1      -0.750   3.750   0.000  0.00  0.00    +0.084 C 
ATOM     11  C   UNL     1      -1.632   2.537   0.000  0.00  0.00    +0.045 C 
ATOM     12  O   UNL     1      -1.168   6.390   0.000  0.00  0.00    -0.292 OA
ATOM     13  C   UNL     1      -3.058   3.000   0.000  0.00  0.00    -0.019 A 
ENDROOT
BRANCH   5   6
ATOM      6  O   UNL     1      -4.357   6.750   0.000  0.00  0.00    -0.494 OA
ATOM      7  C   UNL     1      -5.656   7.500   0.000  0.00  0.00    +0.277 C 
ENDBRANCH   5   6
TORSDOF 1