REMARK  Name = 109747
REMARK  4 active torsions:
REMARK  status: ('A' for Active; 'I' for Inactive)
REMARK    1  A    between atoms: C_6  and  C_17
REMARK    2  A    between atoms: C_7  and  O_19
REMARK    3  A    between atoms: C_8  and  C_20
REMARK    4  A    between atoms: C_13  and  C_17
REMARK                            x       y       z     vdW  Elec       q    Type
REMARK                         _______ _______ _______ _____ _____    ______ ____
ROOT
ATOM      1  N   UNL     1       6.120   8.899   0.000  0.00  0.00    -0.252 NA
ATOM      2  C   UNL     1       4.821   8.149   0.000  0.00  0.00    +0.075 A 
ATOM      3  C   UNL     1       4.821   6.649   0.000  0.00  0.00    +0.042 A 
ATOM      4  C   UNL     1       3.522   5.899   0.000  0.00  0.00    +0.025 A 
ATOM      5  C   UNL     1       2.223   6.649   0.000  0.00  0.00    +0.023 A 
ATOM     14  C   UNL     1       2.223   8.149   0.000  0.00  0.00    +0.014 A 
ATOM     15  C   UNL     1       6.120   5.899   0.000  0.00  0.00    +0.128 A 
ATOM     18  C   UNL     1       7.419   6.649   0.000  0.00  0.00    +0.069 A 
ATOM     19  C   UNL     1       3.522   8.899   0.000  0.00  0.00    +0.029 A 
ATOM     20  C   UNL     1       7.419   8.149   0.000  0.00  0.00    +0.042 A 
ATOM     21  C   UNL     1       8.718   8.899   0.000  0.00  0.00    +0.066 C 
ENDROOT
BRANCH   5   6
ATOM      6  C   UNL     1       0.924   5.899   0.000  0.00  0.00    +0.193 C 
ATOM      7  O   UNL     1      -0.375   6.649   0.000  0.00  0.00    -0.287 OA
BRANCH   6   8
ATOM      8  C   UNL     1       0.924   4.399   0.000  0.00  0.00    +0.022 A 
ATOM      9  C   UNL     1       2.223   3.650   0.000  0.00  0.00    +0.012 A 
ATOM     10  C   UNL     1       2.223   2.150   0.000  0.00  0.00    +0.001 A 
ATOM     11  C   UNL     1       0.924   1.400   0.000  0.00  0.00    +0.000 A 
ATOM     12  C   UNL     1      -0.375   2.150   0.000  0.00  0.00    +0.001 A 
ATOM     13  C   UNL     1      -0.375   3.650   0.000  0.00  0.00    +0.012 A 
ENDBRANCH   6   8
ENDBRANCH   5   6
BRANCH  15  16
ATOM     16  O   UNL     1       6.120   4.399   0.000  0.00  0.00    -0.506 OA
ATOM     17  H   UNL     1       5.309   3.931   0.000  0.00  0.00    +0.292 HD
ENDBRANCH  15  16
TORSDOF 3