REMARK  Name = 112547
REMARK  4 active torsions:
REMARK  status: ('A' for Active; 'I' for Inactive)
REMARK    1  A    between atoms: C_9  and  C_22
REMARK    2  A    between atoms: C_10  and  C_21
REMARK    3  A    between atoms: C_11  and  C_22
REMARK    4  A    between atoms: C_13  and  O_23
REMARK                            x       y       z     vdW  Elec       q    Type
REMARK                         _______ _______ _______ _____ _____    ______ ____
ROOT
ATOM      6  C   UNL     1       5.571  -3.650   0.000  0.00  0.00    +0.081 C 
ENDROOT
BRANCH   6   5
ATOM      1  H   UNL     1       2.973   1.375   0.000  0.00  0.00    +0.167 HD
ATOM      2  N   UNL     1       4.272   0.625   0.000  0.00  0.00    -0.339 N 
ATOM      3  C   UNL     1       4.272  -0.875   0.000  0.00  0.00    +0.024 A 
ATOM      4  C   UNL     1       2.973  -1.625   0.000  0.00  0.00    +0.064 C 
ATOM      5  C   UNL     1       5.571  -1.625   0.000  0.00  0.00    +0.040 A 
ATOM     19  C   UNL     1       6.870  -0.875   0.000  0.00  0.00    +0.256 A 
ATOM     20  O   UNL     1       8.169  -1.625   0.000  0.00  0.00    -0.267 OA
ATOM     21  N   UNL     1       6.870   0.625   0.000  0.00  0.00    -0.303 N 
ATOM     22  H   UNL     1       8.169   1.375   0.000  0.00  0.00    +0.171 HD
ATOM     23  C   UNL     1       5.571   1.375   0.000  0.00  0.00    +0.158 A 
ATOM     24  S   UNL     1       5.571   2.876   0.000  0.00  0.00    -0.013 S 
ENDBRANCH   6   5
BRANCH   6   7
ATOM      7  C   UNL     1       7.325  -4.662   0.000  0.00  0.00    +0.006 A 
ATOM      8  C   UNL     1       7.325  -6.162   0.000  0.00  0.00    -0.011 A 
ATOM      9  C   UNL     1       6.026  -6.912   0.000  0.00  0.00    +0.009 A 
ATOM     10  C   UNL     1       6.026  -8.412   0.000  0.00  0.00    +0.001 A 
ATOM     11  C   UNL     1       7.325  -9.162   0.000  0.00  0.00    +0.001 A 
ATOM     12  C   UNL     1       8.624  -8.412   0.000  0.00  0.00    +0.008 A 
ATOM     13  C   UNL     1       8.624  -6.912   0.000  0.00  0.00    -0.017 A 
ATOM     14  C   UNL     1       9.923  -6.162   0.000  0.00  0.00    +0.012 A 
ATOM     15  C   UNL     1       9.923  -4.662   0.000  0.00  0.00    +0.046 A 
ATOM     16  C   UNL     1       8.624  -3.912   0.000  0.00  0.00    +0.121 A 
BRANCH  16  17
ATOM     17  O   UNL     1       8.624  -2.412   0.000  0.00  0.00    -0.506 OA
ATOM     18  H   UNL     1       9.435  -1.943   0.000  0.00  0.00    +0.292 HD
ENDBRANCH  16  17
ENDBRANCH   6   7
TORSDOF 3