REMARK  Name = 10772
REMARK  4 active torsions:
REMARK  status: ('A' for Active; 'I' for Inactive)
REMARK    1  A    between atoms: N_4  and  C_5
REMARK    2  A    between atoms: C_5  and  C_6
REMARK    3  A    between atoms: C_5  and  C_7
REMARK    4  A    between atoms: C_7  and  C_8
REMARK                            x       y       z     vdW  Elec       q    Type
REMARK                         _______ _______ _______ _____ _____    ______ ____
ROOT
ATOM      7  C   UNL     1      -3.475  -6.956   0.000  0.00  0.00    +0.076 C 
ATOM     15  C   UNL     1      -2.725  -8.255   0.000  0.00  0.00    +0.028 C 
ENDROOT
BRANCH   7   5
ATOM      1  N   UNL     1      -4.975  -9.554   0.000  0.00  0.00    -0.313 N 
ATOM      2  H   UNL     1      -3.990  -9.554   0.000  0.00  0.00    +0.146 HD
ATOM      3  H   UNL     1      -5.467 -10.407   0.000  0.00  0.00    +0.146 HD
ATOM      4  C   UNL     1      -5.725  -8.255   0.000  0.00  0.00    +0.297 C 
ATOM      5  N   UNL     1      -4.975  -6.956   0.000  0.00  0.00    -0.297 N 
ATOM      6  H   UNL     1      -5.467  -6.103   0.000  0.00  0.00    +0.151 HD
ATOM     16  O   UNL     1      -7.225  -8.255   0.000  0.00  0.00    -0.253 OA
ENDBRANCH   7   5
BRANCH   7   8
ATOM      8  C   UNL     1      -2.725  -5.657   0.000  0.00  0.00    +0.057 C 
BRANCH   8   9
ATOM      9  C   UNL     1      -1.225  -5.657   0.000  0.00  0.00    -0.046 A 
ATOM     10  C   UNL     1       0.233  -5.263   0.000  0.00  0.00    +0.004 A 
ATOM     11  C   UNL     1       1.296  -4.205   0.000  0.00  0.00    +0.000 A 
ATOM     12  C   UNL     1       1.687  -2.757   0.000  0.00  0.00    +0.000 A 
ATOM     13  C   UNL     1       2.134  -4.438   0.000  0.00  0.00    +0.000 A 
ATOM     14  C   UNL     1       0.455  -6.111   0.000  0.00  0.00    +0.004 A 
ENDBRANCH   8   9
ENDBRANCH   7   8
TORSDOF 3