REMARK  Name = 109174
REMARK  2 active torsions:
REMARK  status: ('A' for Active; 'I' for Inactive)
REMARK    1  A    between atoms: C_5  and  C_18
REMARK    2  A    between atoms: C_8  and  C_15
REMARK                            x       y       z     vdW  Elec       q    Type
REMARK                         _______ _______ _______ _____ _____    ______ ____
ROOT
ATOM      1  N   UNL     1      -5.946  -0.750   0.000  0.00  0.00    -0.229 NA
ATOM      2  C   UNL     1      -4.647  -1.500   0.000  0.00  0.00    +0.148 A 
ATOM      3  N   UNL     1      -3.348  -0.750   0.000  0.00  0.00    -0.292 N 
ATOM      4  H   UNL     1      -3.348   0.234   0.000  0.00  0.00    +0.172 HD
ATOM      5  C   UNL     1      -2.049  -1.500   0.000  0.00  0.00    +0.328 A 
ATOM      6  N   UNL     1      -2.049  -3.000   0.000  0.00  0.00    -0.275 N 
ATOM      7  H   UNL     1      -1.196  -3.492   0.000  0.00  0.00    +0.173 HD
ATOM      8  C   UNL     1      -3.348  -3.750   0.000  0.00  0.00    +0.263 A 
ATOM      9  O   UNL     1      -3.348  -5.250   0.000  0.00  0.00    -0.267 OA
ATOM     10  O   UNL     1      -0.750  -0.750   0.000  0.00  0.00    -0.247 OA
ATOM     11  C   UNL     1      -4.647  -3.000   0.000  0.00  0.00    +0.082 A 
ATOM     12  C   UNL     1      -5.946  -3.750   0.000  0.00  0.00    +0.027 A 
ATOM     13  C   UNL     1      -7.245  -3.000   0.000  0.00  0.00    +0.002 A 
ATOM     14  C   UNL     1      -8.544  -3.750   0.000  0.00  0.00    +0.013 A 
ATOM     15  C   UNL     1      -9.843  -3.000   0.000  0.00  0.00    -0.047 A 
ATOM     16  C   UNL     1     -11.142  -3.750   0.000  0.00  0.00    +0.044 C 
ATOM     17  C   UNL     1      -9.843  -1.500   0.000  0.00  0.00    -0.045 A 
ATOM     18  C   UNL     1     -11.142  -0.750   0.000  0.00  0.00    +0.044 C 
ATOM     19  C   UNL     1      -8.544  -0.750   0.000  0.00  0.00    +0.032 A 
ATOM     20  C   UNL     1      -7.245  -1.500   0.000  0.00  0.00    +0.074 A 
ENDROOT
TORSDOF 0