REMARK  Name = 117922
REMARK  3 active torsions:
REMARK  status: ('A' for Active; 'I' for Inactive)
REMARK    1  A    between atoms: C_3  and  C_7
REMARK    2  A    between atoms: CA_4  and  C_9
REMARK    3  A    between atoms: C_9  and  OXT_11
REMARK                            x       y       z     vdW  Elec       q    Type
REMARK                         _______ _______ _______ _____ _____    ______ ____
ROOT
ATOM      1  N   UNL     1       2.049  -4.500   0.000  0.00  0.00    -0.246 NA
ATOM      2  C   UNL     1       0.750  -5.250   0.000  0.00  0.00    +0.131 A 
ATOM      3  C   UNL     1       0.750  -6.750   0.000  0.00  0.00    +0.131 A 
ATOM      4  N   UNL     1       2.049  -7.500   0.000  0.00  0.00    -0.245 NA
ATOM      5  CA  UNL     1       3.348  -6.750   0.000  0.00  0.00    +0.178 A 
ATOM     10  C   UNL     1       3.348  -5.250   0.000  0.00  0.00    +0.158 A 
ENDROOT
BRANCH  10  11
ATOM     11  C   UNL     1       4.647  -4.500   0.000  0.00  0.00    +0.272 C 
ATOM     12  N   UNL     1       4.647  -3.000   0.000  0.00  0.00    -0.235 N 
ATOM     13  H   UNL     1       5.500  -2.508   0.000  0.00  0.00    +0.159 HD
ATOM     14  C   UNL     1       3.348  -2.250   0.000  0.00  0.00    +0.304 C 
ATOM     15  N   UNL     1       3.348  -0.750   0.000  0.00  0.00    -0.313 N 
ATOM     16  H   UNL     1       2.495  -0.258   0.000  0.00  0.00    +0.146 HD
ATOM     17  H   UNL     1       4.201  -0.258   0.000  0.00  0.00    +0.146 HD
ATOM     18  O   UNL     1       2.049  -3.000   0.000  0.00  0.00    -0.253 OA
ATOM     19  O   UNL     1       5.946  -5.250   0.000  0.00  0.00    -0.268 OA
ENDBRANCH  10  11
BRANCH   5   6
ATOM      6  C   UNL     1       4.647  -7.500   0.000  0.00  0.00    +0.358 C 
ATOM      9  O   UNL     1       5.946  -6.750   0.000  0.00  0.00    -0.243 OA
BRANCH   6   7
ATOM      7  OXT UNL     1       4.647  -9.000   0.000  0.00  0.00    -0.476 OA
ATOM      8  HXT UNL     1       3.836  -9.469   0.000  0.00  0.00    +0.295 HD
ENDBRANCH   6   7
ENDBRANCH   5   6
TORSDOF 3