REMARK  Name = 120286
REMARK  2 active torsions:
REMARK  status: ('A' for Active; 'I' for Inactive)
REMARK    1  A    between atoms: C_5  and  C_14
REMARK    2  A    between atoms: C_8  and  C_12
REMARK                            x       y       z     vdW  Elec       q    Type
REMARK                         _______ _______ _______ _____ _____    ______ ____
ROOT
ATOM      1  N   UNL     1      -5.521  -5.554   0.000  0.00  0.00    -0.240 NA
ATOM      2  C   UNL     1      -6.820  -6.304   0.000  0.00  0.00    +0.113 A 
ATOM      3  C   UNL     1      -6.820  -7.804   0.000  0.00  0.00    +0.020 A 
ATOM      4  C   UNL     1      -5.521  -8.554   0.000  0.00  0.00    +0.008 A 
ATOM      5  C   UNL     1      -4.222  -7.804   0.000  0.00  0.00    -0.010 A 
ATOM      6  C   UNL     1      -2.923  -8.554   0.000  0.00  0.00    +0.047 C 
ATOM      7  C   UNL     1      -4.222  -6.304   0.000  0.00  0.00    +0.128 A 
ATOM      8  N   UNL     1      -2.923  -5.554   0.000  0.00  0.00    -0.265 N 
ATOM      9  H   UNL     1      -2.070  -6.046   0.000  0.00  0.00    +0.157 HD
ATOM     10  C   UNL     1      -2.923  -4.054   0.000  0.00  0.00    +0.270 C 
ATOM     11  O   UNL     1      -4.222  -3.304   0.000  0.00  0.00    -0.268 OA
ENDROOT
BRANCH  10  12
ATOM     12  C   UNL     1      -1.624  -3.304   0.000  0.00  0.00    +0.156 A 
ATOM     13  C   UNL     1      -0.254  -3.914   0.000  0.00  0.00    +0.101 A 
ATOM     14  S   UNL     1       0.750  -2.799   0.000  0.00  0.00    +0.029 S 
ATOM     15  N   UNL     1       0.000  -1.500   0.000  0.00  0.00    -0.110 NA
ATOM     16  N   UNL     1      -1.467  -1.812   0.000  0.00  0.00    -0.136 NA
ENDBRANCH  10  12
TORSDOF 1