REMARK  Name = 119805
REMARK  6 active torsions:
REMARK  status: ('A' for Active; 'I' for Inactive)
REMARK    1  A    between atoms: C_2  and  C_21
REMARK    2  A    between atoms: C_5  and  O_22
REMARK    3  A    between atoms: C_9  and  C_16
REMARK    4  A    between atoms: C_10  and  N_13
REMARK    5  A    between atoms: C_17  and  C_18
REMARK    6  A    between atoms: N_19  and  N_20
REMARK                            x       y       z     vdW  Elec       q    Type
REMARK                         _______ _______ _______ _____ _____    ______ ____
ROOT
ATOM      5  N   UNL     1       3.314  -1.240   0.000  0.00  0.00    -0.158 NA
ATOM      6  C   UNL     1       3.314   0.260   0.000  0.00  0.00    +0.135 C 
ENDROOT
BRANCH   5   4
ATOM      3  C   UNL     1       4.613  -3.490   0.000  0.00  0.00    +0.146 C 
ATOM      4  N   UNL     1       4.613  -1.990   0.000  0.00  0.00    -0.157 NA
BRANCH   3   2
ATOM      1  C   UNL     1       7.211  -3.490   0.000  0.00  0.00    +0.013 A 
ATOM      2  C   UNL     1       5.912  -4.240   0.000  0.00  0.00    +0.036 A 
ATOM     18  C   UNL     1       5.912  -5.740   0.000  0.00  0.00    +0.125 A 
ATOM     21  C   UNL     1       7.211  -6.490   0.000  0.00  0.00    +0.046 A 
ATOM     22  C   UNL     1       8.510  -5.740   0.000  0.00  0.00    +0.004 A 
ATOM     23  C   UNL     1       8.510  -4.240   0.000  0.00  0.00    +0.001 A 
BRANCH  18  19
ATOM     19  O   UNL     1       4.613  -6.490   0.000  0.00  0.00    -0.506 OA
ATOM     20  H   UNL     1       3.802  -6.022   0.000  0.00  0.00    +0.292 HD
ENDBRANCH  18  19
ENDBRANCH   3   2
ENDBRANCH   5   4
BRANCH   6   7
ATOM      7  C   UNL     1       2.015   1.010   0.000  0.00  0.00    +0.022 C 
ATOM      8  C   UNL     1       0.716   0.260   0.000  0.00  0.00    +0.016 C 
BRANCH   8   9
ATOM      9  C   UNL     1      -0.583   1.010   0.000  0.00  0.00    +0.052 A 
ATOM     10  C   UNL     1      -0.583   2.510   0.000  0.00  0.00    +0.280 A 
ATOM     14  C   UNL     1      -1.882   3.260   0.000  0.00  0.00    +0.085 A 
ATOM     15  C   UNL     1      -3.181   2.510   0.000  0.00  0.00    +0.007 A 
ATOM     16  C   UNL     1      -3.181   1.010   0.000  0.00  0.00    +0.001 A 
ATOM     17  C   UNL     1      -1.882   0.260   0.000  0.00  0.00    +0.014 A 
BRANCH  10  11
ATOM     11  N   UNL     1       0.716   3.260   0.000  0.00  0.00    +0.080 N 
ATOM     12  O   UNL     1       0.716   4.760   0.000  0.00  0.00    +0.041 OA
ATOM     13  O   UNL     1       2.015   2.510   0.000  0.00  0.00    -0.576 OA
ENDBRANCH  10  11
ENDBRANCH   8   9
ENDBRANCH   6   7
TORSDOF 6