REMARK  Name = 116565
REMARK  2 active torsions:
REMARK  status: ('A' for Active; 'I' for Inactive)
REMARK    1  A    between atoms: N_2  and  O_13
REMARK    2  A    between atoms: C_11  and  C_14
REMARK                            x       y       z     vdW  Elec       q    Type
REMARK                         _______ _______ _______ _____ _____    ______ ____
ROOT
ATOM      1  O   UNL     1       0.750   2.250   0.000  0.00  0.00    -0.244 OA
ATOM      2  C   UNL     1       2.049   3.000   0.000  0.00  0.00    +0.355 A 
ATOM      3  N   UNL     1       3.348   2.250   0.000  0.00  0.00    -0.290 N 
ATOM      4  H   UNL     1       3.348   0.750   0.000  0.00  0.00    +0.172 HD
ATOM      5  C   UNL     1       4.647   3.000   0.000  0.00  0.00    +0.155 A 
ATOM      6  C   UNL     1       4.647   4.500   0.000  0.00  0.00    +0.123 A 
ATOM      7  C   UNL     1       3.348   5.250   0.000  0.00  0.00    +0.296 A 
ATOM      8  O   UNL     1       3.348   6.750   0.000  0.00  0.00    -0.264 OA
ATOM      9  S   UNL     1       6.074   4.963   0.000  0.00  0.00    -0.065 S 
ATOM     10  C   UNL     1       6.955   3.750   0.000  0.00  0.00    +0.078 A 
ATOM     11  C   UNL     1       8.455   3.750   0.000  0.00  0.00    +0.074 C 
ATOM     12  N   UNL     1       6.074   2.537   0.000  0.00  0.00    -0.226 NA
ATOM     13  N   UNL     1       2.049   4.500   0.000  0.00  0.00    -0.133 N 
ENDROOT
BRANCH  13  14
ATOM     14  O   UNL     1       0.750   5.250   0.000  0.00  0.00    -0.276 OA
ATOM     15  H   UNL     1       0.750   6.220   0.000  0.00  0.00    +0.245 HD
ENDBRANCH  13  14
TORSDOF 1