REMARK  Name = 116640
REMARK  3 active torsions:
REMARK  status: ('A' for Active; 'I' for Inactive)
REMARK    1  A    between atoms: C_12  and  C_13
REMARK    2  A    between atoms: C_14  and  C_23
REMARK    3  A    between atoms: C_18  and  C_20
REMARK                            x       y       z     vdW  Elec       q    Type
REMARK                         _______ _______ _______ _____ _____    ______ ____
ROOT
ATOM      1  H   UNL     1      -2.366  -7.443   0.000  0.00  0.00    +0.166 HD
ATOM      2  N   UNL     1      -0.939  -7.906   0.000  0.00  0.00    -0.352 N 
ATOM      3  C   UNL     1      -0.475  -9.333   0.000  0.00  0.00    +0.048 A 
ATOM     10  C   UNL     1       1.025  -9.333   0.000  0.00  0.00    +0.047 A 
ATOM     11  C   UNL     1       1.488  -7.906   0.000  0.00  0.00    +0.079 A 
ATOM     14  C   UNL     1       0.275  -7.024   0.000  0.00  0.00    +0.084 A 
ENDROOT
BRANCH  14  15
ATOM     15  C   UNL     1       0.275  -5.524   0.000  0.00  0.00    +0.096 A 
ATOM     16  C   UNL     1       1.574  -4.774   0.000  0.00  0.00    +0.010 A 
ATOM     17  C   UNL     1       2.873  -5.524   0.000  0.00  0.00    +0.010 A 
ATOM     18  C   UNL     1       4.172  -4.774   0.000  0.00  0.00    +0.001 A 
ATOM     19  C   UNL     1       4.172  -3.275   0.000  0.00  0.00    +0.001 A 
ATOM     20  C   UNL     1       2.873  -2.525   0.000  0.00  0.00    +0.008 A 
ATOM     21  C   UNL     1       1.574  -3.275   0.000  0.00  0.00    -0.014 A 
ATOM     22  C   UNL     1       0.275  -2.525   0.000  0.00  0.00    +0.028 A 
ATOM     23  C   UNL     1      -1.025  -3.275   0.000  0.00  0.00    +0.112 A 
ATOM     24  N   UNL     1      -1.025  -4.774   0.000  0.00  0.00    -0.253 NA
ENDBRANCH  14  15
BRANCH   3   4
ATOM      4  C   UNL     1      -1.357 -10.546   0.000  0.00  0.00    -0.002 A 
ATOM      5  C   UNL     1      -0.747 -11.917   0.000  0.00  0.00    +0.010 A 
ATOM      6  C   UNL     1      -1.629 -13.130   0.000  0.00  0.00    +0.001 A 
ATOM      7  C   UNL     1      -3.120 -12.973   0.000  0.00  0.00    +0.000 A 
ATOM      8  C   UNL     1      -3.731 -11.603   0.000  0.00  0.00    +0.001 A 
ATOM      9  C   UNL     1      -2.849 -10.390   0.000  0.00  0.00    +0.010 A 
ENDBRANCH   3   4
BRANCH  11  12
ATOM     12  C   UNL     1       2.915  -7.443   0.000  0.00  0.00    +0.101 C 
ATOM     13  N   UNL     1       4.341  -6.979   0.000  0.00  0.00    -0.191 NA
ENDBRANCH  11  12
TORSDOF 3