REMARK  Name = 11991
REMARK  4 active torsions:
REMARK  status: ('A' for Active; 'I' for Inactive)
REMARK    1  A    between atoms: C_4  and  C_14
REMARK    2  A    between atoms: C_14  and  C_15
REMARK    3  A    between atoms: C_14  and  C_16
REMARK    4  A    between atoms: C_14  and  C_17
REMARK                            x       y       z     vdW  Elec       q    Type
REMARK                         _______ _______ _______ _____ _____    ______ ____
ROOT
ATOM      1  O   UNL     1      -2.268   7.739   0.000  0.00  0.00    -0.291 OA
ATOM      2  C   UNL     1      -1.386   6.525   0.000  0.00  0.00    +0.178 C 
ATOM      3  C   UNL     1      -1.849   5.098   0.000  0.00  0.00    +0.027 A 
ATOM      4  C   UNL     1      -3.220   4.488   0.000  0.00  0.00    +0.012 A 
ATOM      5  C   UNL     1      -3.377   2.997   0.000  0.00  0.00    +0.001 A 
ATOM      6  C   UNL     1      -2.163   2.115   0.000  0.00  0.00    +0.001 A 
ATOM      7  C   UNL     1      -0.793   2.725   0.000  0.00  0.00    +0.010 A 
ATOM      8  C   UNL     1      -0.636   4.217   0.000  0.00  0.00    +0.010 A 
ATOM      9  C   UNL     1       0.578   5.098   0.000  0.00  0.00    +0.087 C 
ATOM     10  N   UNL     1       2.078   5.098   0.000  0.00  0.00    -0.153 NA
ATOM     11  N   UNL     1       2.541   6.525   0.000  0.00  0.00    -0.157 NA
ATOM     12  C   UNL     1       1.328   7.407   0.000  0.00  0.00    +0.063 C 
ATOM     17  C   UNL     1       0.114   6.525   0.000  0.00  0.00    +0.158 C 
ENDROOT
BRANCH  12  13
ATOM     13  C   UNL     1       1.328   8.907   0.000  0.00  0.00    +0.003 C 
ATOM     14  C   UNL     1       2.828   8.907   0.000  0.00  0.00    +0.017 C 
ATOM     15  C   UNL     1       1.328  10.407   0.000  0.00  0.00    +0.017 C 
ATOM     16  C   UNL     1      -0.172   8.907   0.000  0.00  0.00    +0.017 C 
ENDBRANCH  12  13
TORSDOF 1