REMARK  Name = 113486
REMARK  4 active torsions:
REMARK  status: ('A' for Active; 'I' for Inactive)
REMARK    1  A    between atoms: C_6  and  C_10
REMARK    2  A    between atoms: C_7  and  C_11
REMARK    3  A    between atoms: N_14  and  C_15
REMARK    4  A    between atoms: N_14  and  C_16
REMARK                            x       y       z     vdW  Elec       q    Type
REMARK                         _______ _______ _______ _____ _____    ______ ____
ROOT
ATOM      1  N   UNL     1      -5.946  -2.250   0.000  0.00  0.00    -0.316 N 
ATOM      2  H   UNL     1      -5.946  -0.750   0.000  0.00  0.00    +0.170 HD
ATOM      3  C   UNL     1      -4.647  -3.000   0.000  0.00  0.00    +0.273 A 
ATOM      4  N   UNL     1      -3.348  -2.250   0.000  0.00  0.00    -0.213 N 
ATOM      5  H   UNL     1      -3.348  -1.266   0.000  0.00  0.00    +0.268 HD
ATOM      6  C   UNL     1      -2.049  -3.000   0.000  0.00  0.00    +0.388 C 
ATOM      7  N   UNL     1      -2.049  -4.500   0.000  0.00  0.00    -0.268 N 
ATOM      8  C   UNL     1      -3.348  -5.250   0.000  0.00  0.00    +0.242 C 
ATOM      9  C   UNL     1      -0.750  -5.250   0.000  0.00  0.00    +0.242 C 
ATOM     10  N   UNL     1      -0.750  -2.250   0.000  0.00  0.00    -0.129 NA
ATOM     11  H   UNL     1       0.103  -2.742   0.000  0.00  0.00    +0.306 HD
ATOM     12  N   UNL     1      -4.647  -4.500   0.000  0.00  0.00    -0.160 NA
ATOM     13  C   UNL     1      -5.946  -5.250   0.000  0.00  0.00    +0.279 A 
ATOM     14  C   UNL     1      -7.245  -4.500   0.000  0.00  0.00    +0.035 A 
ATOM     15  C   UNL     1      -8.544  -5.250   0.000  0.00  0.00    +0.051 C 
ATOM     16  O   UNL     1      -5.946  -6.750   0.000  0.00  0.00    -0.265 OA
ATOM     17  C   UNL     1      -7.245  -3.000   0.000  0.00  0.00    +0.025 A 
ATOM     18  C   UNL     1      -8.544  -2.250   0.000  0.00  0.00    +0.064 C 
ENDROOT
TORSDOF 0