REMARK  Name = 11437
REMARK  7 active torsions:
REMARK  status: ('A' for Active; 'I' for Inactive)
REMARK    1  A    between atoms: C_2  and  O_14
REMARK    2  A    between atoms: C_4  and  C_15
REMARK    3  A    between atoms: C_9  and  C_18
REMARK    4  A    between atoms: C_11  and  N_19
REMARK    5  A    between atoms: C_15  and  C_17
REMARK    6  A    between atoms: N_19  and  C_20
REMARK    7  A    between atoms: N_19  and  C_21
REMARK                            x       y       z     vdW  Elec       q    Type
REMARK                         _______ _______ _______ _____ _____    ______ ____
ROOT
ATOM      9  C   UNL     1      -9.843  -2.250   0.000  0.00  0.00    +0.190 C 
ATOM     21  O   UNL     1      -9.843  -0.750   0.000  0.00  0.00    -0.287 OA
ENDROOT
BRANCH   9   8
ATOM      1 CL   UNL     1     -12.441  -6.750   0.000  0.00  0.00    -0.084 Cl
ATOM      2  C   UNL     1     -12.441  -5.250   0.000  0.00  0.00    +0.042 A 
ATOM      3  C   UNL     1     -13.740  -4.500   0.000  0.00  0.00    +0.023 A 
ATOM      4  C   UNL     1     -13.740  -3.000   0.000  0.00  0.00    +0.047 A 
ATOM      5  C   UNL     1     -12.441  -2.250   0.000  0.00  0.00    +0.128 A 
ATOM      8  C   UNL     1     -11.142  -3.000   0.000  0.00  0.00    +0.064 A 
ATOM     22  C   UNL     1     -11.142  -4.500   0.000  0.00  0.00    +0.035 A 
BRANCH   5   6
ATOM      6  O   UNL     1     -12.441  -0.750   0.000  0.00  0.00    -0.506 OA
ATOM      7  H   UNL     1     -11.630  -0.281   0.000  0.00  0.00    +0.292 HD
ENDBRANCH   5   6
ENDBRANCH   9   8
BRANCH   9  10
ATOM     10  C   UNL     1      -8.544  -3.000   0.000  0.00  0.00    +0.052 C 
ATOM     11  C   UNL     1      -7.245  -2.250   0.000  0.00  0.00    +0.012 C 
BRANCH  11  12
ATOM     12  C   UNL     1      -5.946  -3.000   0.000  0.00  0.00    -0.025 A 
ATOM     13  C   UNL     1      -5.946  -4.500   0.000  0.00  0.00    +0.010 A 
ATOM     14  C   UNL     1      -4.647  -5.250   0.000  0.00  0.00    +0.023 A 
ATOM     15  C   UNL     1      -3.348  -4.500   0.000  0.00  0.00    +0.029 A 
ATOM     19  C   UNL     1      -3.348  -3.000   0.000  0.00  0.00    +0.023 A 
ATOM     20  C   UNL     1      -4.647  -2.250   0.000  0.00  0.00    +0.010 A 
BRANCH  15  16
ATOM     16  N   UNL     1      -2.049  -5.250   0.000  0.00  0.00    -0.336 N 
ATOM     17  C   UNL     1      -2.049  -6.750   0.000  0.00  0.00    +0.129 C 
ATOM     18  C   UNL     1      -0.750  -4.500   0.000  0.00  0.00    +0.129 C 
ENDBRANCH  15  16
ENDBRANCH  11  12
ENDBRANCH   9  10
TORSDOF 5