REMARK  Name = 120289
REMARK  10 active torsions:
REMARK  status: ('A' for Active; 'I' for Inactive)
REMARK    1  A    between atoms: C_3  and  C_7
REMARK    2  A    between atoms: C_6  and  C_12
REMARK    3  A    between atoms: C_8  and  C_22
REMARK    4  A    between atoms: C_16  and  C_17
REMARK    5  A    between atoms: C_17  and  O_19
REMARK    6  A    between atoms: O_19  and  C_20
REMARK    7  A    between atoms: C_20  and  C_21
REMARK    8  A    between atoms: C_22  and  O_24
REMARK    9  A    between atoms: O_24  and  C_25
REMARK   10  A    between atoms: C_25  and  C_26
REMARK                            x       y       z     vdW  Elec       q    Type
REMARK                         _______ _______ _______ _____ _____    ______ ____
ROOT
ATOM      1  C   UNL     1       6.893   4.009   0.000  0.00  0.00    +0.010 A 
ATOM      2  C   UNL     1       6.143   5.308   0.000  0.00  0.00    -0.007 A 
ATOM     13  C   UNL     1       6.893   6.607   0.000  0.00  0.00    +0.010 A 
ATOM     14  C   UNL     1       8.393   6.607   0.000  0.00  0.00    +0.010 A 
ATOM     15  C   UNL     1       9.143   5.308   0.000  0.00  0.00    -0.007 A 
ATOM     26  C   UNL     1       8.393   4.009   0.000  0.00  0.00    +0.010 A 
ENDROOT
BRANCH   2   3
ATOM      3  C   UNL     1       4.643   5.308   0.000  0.00  0.00    +0.074 A 
ATOM      4  C   UNL     1       3.761   4.094   0.000  0.00  0.00    +0.186 A 
ATOM     10  N   UNL     1       2.334   4.558   0.000  0.00  0.00    -0.134 NA
ATOM     11  N   UNL     1       2.334   6.058   0.000  0.00  0.00    -0.109 NA
ATOM     12  S   UNL     1       3.761   6.521   0.000  0.00  0.00    +0.037 S 
BRANCH   4   5
ATOM      5  C   UNL     1       4.225   2.668   0.000  0.00  0.00    +0.361 C 
ATOM      9  O   UNL     1       5.692   2.356   0.000  0.00  0.00    -0.243 OA
BRANCH   5   6
ATOM      6  O   UNL     1       3.221   1.553   0.000  0.00  0.00    -0.460 OA
BRANCH   6   7
ATOM      7  C   UNL     1       1.754   1.865   0.000  0.00  0.00    +0.229 C 
ATOM      8  C   UNL     1       0.750   0.750   0.000  0.00  0.00    +0.048 C 
ENDBRANCH   6   7
ENDBRANCH   5   6
ENDBRANCH   4   5
ENDBRANCH   2   3
BRANCH  15  16
ATOM     16  C   UNL     1      10.643   5.308   0.000  0.00  0.00    +0.074 A 
ATOM     17  S   UNL     1      11.525   6.521   0.000  0.00  0.00    +0.037 S 
ATOM     18  N   UNL     1      12.951   6.058   0.000  0.00  0.00    -0.109 NA
ATOM     19  N   UNL     1      12.951   4.558   0.000  0.00  0.00    -0.134 NA
ATOM     20  C   UNL     1      11.525   4.094   0.000  0.00  0.00    +0.186 A 
BRANCH  20  21
ATOM     21  C   UNL     1      11.061   2.668   0.000  0.00  0.00    +0.361 C 
ATOM     25  O   UNL     1       9.594   2.356   0.000  0.00  0.00    -0.243 OA
BRANCH  21  22
ATOM     22  O   UNL     1      12.065   1.553   0.000  0.00  0.00    -0.460 OA
BRANCH  22  23
ATOM     23  C   UNL     1      13.532   1.865   0.000  0.00  0.00    +0.229 C 
ATOM     24  C   UNL     1      14.536   0.750   0.000  0.00  0.00    +0.048 C 
ENDBRANCH  22  23
ENDBRANCH  21  22
ENDBRANCH  20  21
ENDBRANCH  15  16
TORSDOF 8