REMARK  Name = 11470
REMARK  2 active torsions:
REMARK  status: ('A' for Active; 'I' for Inactive)
REMARK    1  A    between atoms: C_5  and  C_14
REMARK    2  A    between atoms: C_6  and  C_13
REMARK                            x       y       z     vdW  Elec       q    Type
REMARK                         _______ _______ _______ _____ _____    ______ ____
ROOT
ATOM      6  C   UNL     1      -5.899   0.924   0.000  0.00  0.00    +0.008 C 
ATOM      7  C   UNL     1      -6.649   2.223   0.000  0.00  0.00    +0.008 C 
ENDROOT
BRANCH   6   5
ATOM      1  C   UNL     1      -2.150   2.223   0.000  0.00  0.00    +0.111 A 
ATOM      2  N   UNL     1      -1.400   0.924   0.000  0.00  0.00    -0.263 NA
ATOM      3  C   UNL     1      -2.150  -0.375   0.000  0.00  0.00    +0.111 A 
ATOM      4  C   UNL     1      -3.650  -0.375   0.000  0.00  0.00    +0.027 A 
ATOM      5  C   UNL     1      -4.399   0.924   0.000  0.00  0.00    -0.022 A 
ATOM     14  C   UNL     1      -3.650   2.223   0.000  0.00  0.00    +0.027 A 
ENDBRANCH   6   5
BRANCH   7   8
ATOM      8  C   UNL     1      -8.149   2.223   0.000  0.00  0.00    -0.022 A 
ATOM      9  C   UNL     1      -8.899   0.924   0.000  0.00  0.00    +0.027 A 
ATOM     10  C   UNL     1     -10.400   0.924   0.000  0.00  0.00    +0.111 A 
ATOM     11  N   UNL     1     -11.150   2.223   0.000  0.00  0.00    -0.263 NA
ATOM     12  C   UNL     1     -10.400   3.522   0.000  0.00  0.00    +0.111 A 
ATOM     13  C   UNL     1      -8.899   3.522   0.000  0.00  0.00    +0.027 A 
ENDBRANCH   7   8
TORSDOF 2