REMARK  Name = 11912
REMARK  5 active torsions:
REMARK  status: ('A' for Active; 'I' for Inactive)
REMARK    1  A    between atoms: C_3  and  C_18
REMARK    2  A    between atoms: C_5  and  N_19
REMARK    3  A    between atoms: C_14  and  C_17
REMARK    4  A    between atoms: N_19  and  C_20
REMARK    5  A    between atoms: N_19  and  C_21
REMARK                            x       y       z     vdW  Elec       q    Type
REMARK                         _______ _______ _______ _____ _____    ______ ____
ROOT
ATOM     11  C   UNL     1      -7.245   6.750   0.000  0.00  0.00    +0.028 C 
ATOM     12  C   UNL     1      -7.245   5.250   0.000  0.00  0.00    +0.010 C 
ENDROOT
BRANCH  11  10
ATOM      1  N   UNL     1      -8.544   9.000   0.000  0.00  0.00    -0.247 NA
ATOM      2  C   UNL     1      -9.843   9.750   0.000  0.00  0.00    +0.072 A 
ATOM      3  C   UNL     1     -11.142   9.000   0.000  0.00  0.00    +0.000 A 
ATOM      4  C   UNL     1     -12.441   9.750   0.000  0.00  0.00    +0.010 A 
ATOM      5  C   UNL     1     -12.441  11.250   0.000  0.00  0.00    +0.001 A 
ATOM      6  C   UNL     1     -11.142  12.000   0.000  0.00  0.00    +0.002 A 
ATOM      7  C   UNL     1     -11.142   7.500   0.000  0.00  0.00    +0.012 A 
ATOM      8  C   UNL     1      -9.843   6.750   0.000  0.00  0.00    +0.028 A 
ATOM      9  C   UNL     1      -9.843  11.250   0.000  0.00  0.00    +0.028 A 
ATOM     10  C   UNL     1      -8.544   7.500   0.000  0.00  0.00    +0.065 A 
ENDBRANCH  11  10
BRANCH  12  13
ATOM     13  C   UNL     1      -5.946   4.500   0.000  0.00  0.00    -0.025 A 
ATOM     14  C   UNL     1      -5.946   3.000   0.000  0.00  0.00    +0.010 A 
ATOM     15  C   UNL     1      -4.647   2.250   0.000  0.00  0.00    +0.023 A 
ATOM     16  C   UNL     1      -3.348   3.000   0.000  0.00  0.00    +0.029 A 
ATOM     20  C   UNL     1      -3.348   4.500   0.000  0.00  0.00    +0.023 A 
ATOM     21  C   UNL     1      -4.647   5.250   0.000  0.00  0.00    +0.010 A 
BRANCH  16  17
ATOM     17  N   UNL     1      -2.049   2.250   0.000  0.00  0.00    -0.336 N 
ATOM     18  C   UNL     1      -2.049   0.750   0.000  0.00  0.00    +0.129 C 
ATOM     19  C   UNL     1      -0.750   3.000   0.000  0.00  0.00    +0.129 C 
ENDBRANCH  16  17
ENDBRANCH  12  13
TORSDOF 3