REMARK  Name = 116339
REMARK  6 active torsions:
REMARK  status: ('A' for Active; 'I' for Inactive)
REMARK    1  A    between atoms: C_10  and  C_33
REMARK    2  A    between atoms: C_11  and  C_32
REMARK    3  A    between atoms: C_13  and  O_30
REMARK    4  A    between atoms: C_18  and  C_29
REMARK    5  A    between atoms: C_24  and  C_31
REMARK    6  A    between atoms: O_27  and  C_28
REMARK                            x       y       z     vdW  Elec       q    Type
REMARK                         _______ _______ _______ _____ _____    ______ ____
ROOT
ATOM      1  O   UNL     1     -10.717 -10.054   0.000  0.00  0.00    -0.288 OA
ATOM      2  C   UNL     1      -9.418  -9.304   0.000  0.00  0.00    +0.185 C 
ATOM      3  C   UNL     1      -8.119 -10.054   0.000  0.00  0.00    +0.055 C 
ATOM      4  C   UNL     1      -6.820  -9.304   0.000  0.00  0.00    -0.035 C 
ATOM      5  C   UNL     1      -5.521 -10.054   0.000  0.00  0.00    -0.050 C 
ATOM      6  C   UNL     1      -5.521 -11.554   0.000  0.00  0.00    +0.044 C 
ATOM      7  C   UNL     1      -4.222  -9.304   0.000  0.00  0.00    -0.019 C 
ATOM      8  C   UNL     1      -4.222  -7.804   0.000  0.00  0.00    +0.022 C 
ATOM      9  C   UNL     1      -5.521  -7.054   0.000  0.00  0.00    +0.035 C 
ATOM     10  C   UNL     1      -5.521  -5.554   0.000  0.00  0.00    +0.120 C 
ATOM     13  C   UNL     1      -4.222  -4.804   0.000  0.00  0.00    +0.041 C 
ATOM     14  C   UNL     1      -2.923  -5.554   0.000  0.00  0.00    +0.008 C 
ATOM     15  C   UNL     1      -2.766  -4.062   0.000  0.00  0.00    +0.014 C 
ATOM     16  C   UNL     1      -1.497  -5.090   0.000  0.00  0.00    +0.136 C 
ATOM     17  C   UNL     1      -0.615  -6.304   0.000  0.00  0.00    +0.024 C 
ATOM     18  C   UNL     1       0.885  -6.304   0.000  0.00  0.00    +0.010 C 
ATOM     19  C   UNL     1      -1.497  -7.517   0.000  0.00  0.00    +0.011 C 
ATOM     20  C   UNL     1      -0.070  -4.627   0.000  0.00  0.00    +0.228 C 
ATOM     21  C   UNL     1       0.355  -6.435   0.000  0.00  0.00    +0.230 C 
ATOM     22  O   UNL     1       1.781  -6.899   0.000  0.00  0.00    -0.349 OA
ATOM     23  C   UNL     1       2.663  -5.685   0.000  0.00  0.00    +0.326 C 
ATOM     24  O   UNL     1       1.781  -4.472   0.000  0.00  0.00    -0.318 OA
ATOM     25  O   UNL     1      -0.070  -3.127   0.000  0.00  0.00    -0.318 OA
ATOM     26  C   UNL     1      -1.497  -2.663   0.000  0.00  0.00    +0.327 C 
ATOM     27  O   UNL     1      -2.378  -3.877   0.000  0.00  0.00    -0.341 OA
ATOM     28  C   UNL     1      -2.923  -7.054   0.000  0.00  0.00    +0.006 C 
ATOM     29  C   UNL     1      -6.820  -7.804   0.000  0.00  0.00    +0.003 C 
ATOM     30  C   UNL     1      -6.820  -6.304   0.000  0.00  0.00    +0.017 C 
ATOM     31  C   UNL     1      -8.119  -7.054   0.000  0.00  0.00    +0.053 C 
ATOM     32  C   UNL     1      -9.418  -7.804   0.000  0.00  0.00    +0.034 C 
ATOM     33  C   UNL     1     -10.717  -7.054   0.000  0.00  0.00    +0.190 C 
ENDROOT
BRANCH  10  11
ATOM     11  O   UNL     1      -6.820  -4.804   0.000  0.00  0.00    -0.391 OA
ATOM     12  H   UNL     1      -6.820  -3.834   0.000  0.00  0.00    +0.210 HD
ENDBRANCH  10  11
BRANCH  33  34
ATOM     34  O   UNL     1     -12.017  -7.804   0.000  0.00  0.00    -0.514 OA
ATOM     35  H   UNL     1     -12.828  -7.335   0.000  0.00  0.00    +0.291 HD
ENDBRANCH  33  34
TORSDOF 2