REMARK  Name = 117268
REMARK  4 active torsions:
REMARK  status: ('A' for Active; 'I' for Inactive)
REMARK    1  A    between atoms: N_4  and  C_13
REMARK    2  A    between atoms: C_5  and  C_8
REMARK    3  A    between atoms: C_16  and  S_20
REMARK    4  A    between atoms: S_20  and  N_23
REMARK                            x       y       z     vdW  Elec       q    Type
REMARK                         _______ _______ _______ _____ _____    ______ ____
ROOT
ATOM      1  C   UNL     1     -13.365  -0.649   0.000  0.00  0.00    +0.420 C 
ATOM      2  N   UNL     1     -14.664   0.101   0.000  0.00  0.00    -0.247 N 
ATOM      3  H   UNL     1     -15.517  -0.392   0.000  0.00  0.00    +0.241 HD
ATOM      4  H   UNL     1     -14.664   1.085   0.000  0.00  0.00    +0.241 HD
ATOM      5  N   UNL     1     -12.066   0.101   0.000  0.00  0.00    -0.068 NA
ATOM      6  C   UNL     1     -10.767  -0.649   0.000  0.00  0.00    +0.375 C 
ATOM     14  N   UNL     1     -10.767  -2.150   0.000  0.00  0.00    -0.152 N 
ATOM     27  C   UNL     1     -12.066  -2.900   0.000  0.00  0.00    +0.383 C 
ATOM     28  N   UNL     1     -12.066  -4.399   0.000  0.00  0.00    -0.251 N 
ATOM     29  H   UNL     1     -11.214  -4.892   0.000  0.00  0.00    +0.241 HD
ATOM     30  H   UNL     1     -12.919  -4.892   0.000  0.00  0.00    +0.241 HD
ATOM     31  N   UNL     1     -13.365  -2.150   0.000  0.00  0.00    -0.009 NA
ENDROOT
BRANCH   6   7
ATOM      7  C   UNL     1      -9.468   0.101   0.000  0.00  0.00    +0.027 A 
ATOM      8  C   UNL     1      -8.169  -0.649   0.000  0.00  0.00    +0.012 A 
ATOM      9  C   UNL     1      -6.870   0.101   0.000  0.00  0.00    +0.020 A 
ATOM     10  C   UNL     1      -6.870   1.601   0.000  0.00  0.00    +0.041 A 
ATOM     11 CL   UNL     1      -5.571   2.350   0.000  0.00  0.00    -0.084 Cl
ATOM     12  C   UNL     1      -8.169   2.350   0.000  0.00  0.00    +0.020 A 
ATOM     13  C   UNL     1      -9.468   1.601   0.000  0.00  0.00    +0.012 A 
ENDBRANCH   6   7
BRANCH  14  15
ATOM     15  C   UNL     1      -9.468  -2.900   0.000  0.00  0.00    +0.098 A 
ATOM     16  C   UNL     1      -8.169  -2.150   0.000  0.00  0.00    +0.042 A 
ATOM     17  C   UNL     1      -6.870  -2.900   0.000  0.00  0.00    +0.032 A 
ATOM     18  C   UNL     1      -6.870  -4.399   0.000  0.00  0.00    +0.105 A 
ATOM     25  C   UNL     1      -8.169  -5.149   0.000  0.00  0.00    +0.032 A 
ATOM     26  C   UNL     1      -9.468  -4.399   0.000  0.00  0.00    +0.042 A 
BRANCH  18  19
ATOM     19  S   UNL     1      -5.571  -5.149   0.000  0.00  0.00    +0.056 S 
ATOM     23  O   UNL     1      -4.821  -3.850   0.000  0.00  0.00    -0.153 OA
ATOM     24  O   UNL     1      -6.321  -6.449   0.000  0.00  0.00    -0.153 OA
BRANCH  19  20
ATOM     20  N   UNL     1      -4.272  -5.899   0.000  0.00  0.00    -0.204 NA
ATOM     21  H   UNL     1      -3.389  -5.390   0.000  0.00  0.00    +0.144 HD
ATOM     22  H   UNL     1      -4.272  -6.919   0.000  0.00  0.00    +0.144 HD
ENDBRANCH  19  20
ENDBRANCH  18  19
ENDBRANCH  14  15
TORSDOF 4