REMARK  Name = 117908
REMARK  5 active torsions:
REMARK  status: ('A' for Active; 'I' for Inactive)
REMARK    1  A    between atoms: S_3  and  C_16
REMARK    2  A    between atoms: S_3  and  C_17
REMARK    3  A    between atoms: C_5  and  N_19
REMARK    4  A    between atoms: C_17  and  C_18
REMARK    5  A    between atoms: C_18  and  N_19
REMARK                            x       y       z     vdW  Elec       q    Type
REMARK                         _______ _______ _______ _____ _____    ______ ____
ROOT
ATOM      3  S   UNL     1       0.847   0.815   0.000  0.00  0.00    -0.097 S 
ENDROOT
BRANCH   3   2
ATOM      1  S   UNL     1      -1.783   1.290   0.000  0.00  0.00    -0.061 S 
ATOM      2  C   UNL     1      -0.589   0.383   0.000  0.00  0.00    +0.136 A 
ATOM     14  N   UNL     1      -1.083  -1.034   0.000  0.00  0.00    -0.233 NA
ATOM     15  C   UNL     1      -2.583  -1.002   0.000  0.00  0.00    +0.079 A 
ATOM     16  C   UNL     1      -3.610  -2.094   0.000  0.00  0.00    +0.029 A 
ATOM     17  C   UNL     1      -5.071  -1.751   0.000  0.00  0.00    +0.002 A 
ATOM     18  C   UNL     1      -5.503  -0.315   0.000  0.00  0.00    +0.001 A 
ATOM     19  C   UNL     1      -4.476   0.778   0.000  0.00  0.00    +0.017 A 
ATOM     20  C   UNL     1      -3.016   0.435   0.000  0.00  0.00    +0.040 A 
ENDBRANCH   3   2
BRANCH   3   4
ATOM      4  C   UNL     1       0.932   2.313   0.000  0.00  0.00    +0.095 C 
BRANCH   4   5
ATOM      5  C   UNL     1       2.271   2.988   0.000  0.00  0.00    +0.112 C 
BRANCH   5   6
ATOM      6  N   UNL     1       3.526   2.166   0.000  0.00  0.00    -0.343 N 
ATOM      7  H   UNL     1       4.405   2.610   0.000  0.00  0.00    +0.146 HD
BRANCH   6   8
ATOM      8  C   UNL     1       3.441   0.669   0.000  0.00  0.00    +0.027 A 
ATOM      9  C   UNL     1       4.696  -0.153   0.000  0.00  0.00    +0.023 A 
ATOM     10  C   UNL     1       4.611  -1.651   0.000  0.00  0.00    +0.002 A 
ATOM     11  C   UNL     1       3.272  -2.326   0.000  0.00  0.00    +0.000 A 
ATOM     12  C   UNL     1       2.017  -1.504   0.000  0.00  0.00    +0.002 A 
ATOM     13  C   UNL     1       2.102  -0.007   0.000  0.00  0.00    +0.023 A 
ENDBRANCH   6   8
ENDBRANCH   5   6
ENDBRANCH   4   5
ENDBRANCH   3   4
TORSDOF 5