REMARK  Name = 11881
REMARK  7 active torsions:
REMARK  status: ('A' for Active; 'I' for Inactive)
REMARK    1  A    between atoms: C_7  and  N_18
REMARK    2  A    between atoms: C_10  and  N_13
REMARK    3  A    between atoms: N_13  and  C_19
REMARK    4  A    between atoms: N_13  and  C_20
REMARK    5  A    between atoms: C_17  and  C_21
REMARK    6  A    between atoms: N_18  and  C_27
REMARK    7  A    between atoms: N_18  and  C_28
REMARK                            x       y       z     vdW  Elec       q    Type
REMARK                         _______ _______ _______ _____ _____    ______ ____
ROOT
ATOM      1  C   UNL     1       5.471  10.025   0.000  0.00  0.00    +0.027 A 
ATOM      2  C   UNL     1       6.770   9.274   0.000  0.00  0.00    +0.025 A 
ATOM      3  C   UNL     1       6.770   7.774   0.000  0.00  0.00    +0.030 A 
ATOM      4  C   UNL     1       5.471   7.024   0.000  0.00  0.00    +0.040 A 
ATOM      5  C   UNL     1       4.172   7.774   0.000  0.00  0.00    +0.036 A 
ATOM      6  S   UNL     1       2.873   7.024   0.000  0.00  0.00    -0.086 S 
ATOM      7  C   UNL     1       1.574   7.774   0.000  0.00  0.00    +0.036 A 
ATOM      8  C   UNL     1       0.275   7.024   0.000  0.00  0.00    +0.040 A 
ATOM      9  C   UNL     1      -1.025   7.774   0.000  0.00  0.00    +0.030 A 
ATOM     13  C   UNL     1      -1.025   9.274   0.000  0.00  0.00    +0.025 A 
ATOM     14  C   UNL     1       0.275  10.025   0.000  0.00  0.00    +0.027 A 
ATOM     15  C   UNL     1       1.574   9.274   0.000  0.00  0.00    +0.055 A 
ATOM     16  N   UNL     1       2.873  10.025   0.000  0.00  0.00    -0.234 N 
ATOM     17  C   UNL     1       2.873  11.525   0.000  0.00  0.00    +0.255 C 
ATOM     24  O   UNL     1       1.574  12.275   0.000  0.00  0.00    -0.269 OA
ATOM     28  C   UNL     1       4.172   9.274   0.000  0.00  0.00    +0.055 A 
ENDROOT
BRANCH  17  18
ATOM     18  C   UNL     1       4.172  12.275   0.000  0.00  0.00    +0.038 A 
ATOM     19  C   UNL     1       5.471  11.525   0.000  0.00  0.00    +0.013 A 
ATOM     20  C   UNL     1       6.770  12.275   0.000  0.00  0.00    +0.001 A 
ATOM     21  C   UNL     1       6.770  13.775   0.000  0.00  0.00    +0.000 A 
ATOM     22  C   UNL     1       5.471  14.525   0.000  0.00  0.00    +0.001 A 
ATOM     23  C   UNL     1       4.172  13.775   0.000  0.00  0.00    +0.013 A 
ENDBRANCH  17  18
BRANCH   9  10
ATOM     10  N   UNL     1      -2.324   7.024   0.000  0.00  0.00    -0.336 N 
ATOM     11  C   UNL     1      -2.324   5.524   0.000  0.00  0.00    +0.129 C 
ATOM     12  C   UNL     1      -3.623   7.774   0.000  0.00  0.00    +0.129 C 
ENDBRANCH   9  10
BRANCH   3  25
ATOM     25  N   UNL     1       8.069   7.024   0.000  0.00  0.00    -0.336 N 
ATOM     26  C   UNL     1       9.368   7.774   0.000  0.00  0.00    +0.129 C 
ATOM     27  C   UNL     1       8.069   5.524   0.000  0.00  0.00    +0.129 C 
ENDBRANCH   3  25
TORSDOF 3