REMARK  Name = 117741
REMARK  3 active torsions:
REMARK  status: ('A' for Active; 'I' for Inactive)
REMARK    1  A    between atoms: O_2  and  C_7
REMARK    2  A    between atoms: O_2  and  C_9
REMARK    3  A    between atoms: C_10  and  N_14
REMARK                            x       y       z     vdW  Elec       q    Type
REMARK                         _______ _______ _______ _____ _____    ______ ____
ROOT
ATOM      1  N   UNL     1      -3.522  -4.399   0.000  0.00  0.00    -0.215 NA
ATOM      2  C   UNL     1      -4.821  -3.650   0.000  0.00  0.00    +0.115 A 
ATOM      3  C   UNL     1      -6.120  -4.399   0.000  0.00  0.00    +0.027 A 
ATOM      4  C   UNL     1      -6.120  -5.899   0.000  0.00  0.00    +0.091 A 
ATOM      5  C   UNL     1      -4.821  -6.649   0.000  0.00  0.00    +0.334 A 
ATOM      9  C   UNL     1      -3.522  -5.899   0.000  0.00  0.00    +0.300 A 
ENDROOT
BRANCH   5   6
ATOM      6  N   UNL     1      -4.821  -8.149   0.000  0.00  0.00    +0.085 N 
ATOM      7  O   UNL     1      -6.120  -8.899   0.000  0.00  0.00    +0.042 OA
ATOM      8  O   UNL     1      -3.522  -8.899   0.000  0.00  0.00    -0.576 OA
ENDBRANCH   5   6
BRANCH   9  10
ATOM     10  O   UNL     1      -2.223  -6.649   0.000  0.00  0.00    -0.432 OA
BRANCH  10  11
ATOM     11  C   UNL     1      -0.924  -5.899   0.000  0.00  0.00    +0.149 A 
ATOM     12  C   UNL     1      -0.924  -4.399   0.000  0.00  0.00    +0.157 A 
ATOM     13  N   UNL     1       0.375  -3.650   0.000  0.00  0.00    -0.260 NA
ATOM     14  C   UNL     1       1.674  -4.399   0.000  0.00  0.00    +0.111 A 
ATOM     15  C   UNL     1       1.674  -5.899   0.000  0.00  0.00    +0.023 A 
ATOM     16  C   UNL     1       0.375  -6.649   0.000  0.00  0.00    +0.049 A 
ENDBRANCH  10  11
ENDBRANCH   9  10
TORSDOF 3