REMARK  Name = 116709
REMARK  4 active torsions:
REMARK  status: ('A' for Active; 'I' for Inactive)
REMARK    1  A    between atoms: C_7  and  C_23
REMARK    2  A    between atoms: C_10  and  C_26
REMARK    3  A    between atoms: C_20  and  C_25
REMARK    4  A    between atoms: C_25  and  C_26
REMARK                            x       y       z     vdW  Elec       q    Type
REMARK                         _______ _______ _______ _____ _____    ______ ____
ROOT
ATOM      1  N   UNL     1       2.873   5.524   0.000  0.00  0.00    -0.260 N 
ATOM      2  C   UNL     1       2.873   7.024   0.000  0.00  0.00    +0.251 C 
ATOM      3  O   UNL     1       4.172   7.774   0.000  0.00  0.00    -0.270 OA
ATOM     10  C   UNL     1       4.172   4.774   0.000  0.00  0.00    +0.112 C 
ATOM     20  C   UNL     1       4.172   3.275   0.000  0.00  0.00    -0.003 C 
ATOM     21  C   UNL     1       2.873   2.525   0.000  0.00  0.00    +0.007 C 
ATOM     22  C   UNL     1       1.573   3.275   0.000  0.00  0.00    -0.004 A 
ATOM     23  C   UNL     1       0.275   2.525   0.000  0.00  0.00    +0.010 A 
ATOM     24  C   UNL     1      -1.025   3.275   0.000  0.00  0.00    +0.001 A 
ATOM     25  C   UNL     1      -1.025   4.774   0.000  0.00  0.00    +0.002 A 
ATOM     26  C   UNL     1       0.275   5.524   0.000  0.00  0.00    +0.024 A 
ATOM     27  C   UNL     1       1.573   4.774   0.000  0.00  0.00    +0.044 A 
ENDROOT
BRANCH   2   4
ATOM      4  C   UNL     1       1.573   7.774   0.000  0.00  0.00    +0.037 A 
ATOM      5  C   UNL     1       1.573   9.274   0.000  0.00  0.00    +0.013 A 
ATOM      6  C   UNL     1       0.275  10.025   0.000  0.00  0.00    +0.001 A 
ATOM      7  C   UNL     1      -1.025   9.274   0.000  0.00  0.00    +0.000 A 
ATOM      8  C   UNL     1      -1.025   7.774   0.000  0.00  0.00    +0.001 A 
ATOM      9  C   UNL     1       0.275   7.024   0.000  0.00  0.00    +0.013 A 
ENDBRANCH   2   4
BRANCH  10  11
ATOM     11  C   UNL     1       5.471   5.524   0.000  0.00  0.00    +0.106 C 
BRANCH  11  12
ATOM     12  C   UNL     1       6.770   4.774   0.000  0.00  0.00    +0.165 C 
ATOM     13  O   UNL     1       6.770   3.275   0.000  0.00  0.00    -0.292 OA
BRANCH  12  14
ATOM     14  C   UNL     1       8.069   5.524   0.000  0.00  0.00    +0.017 A 
ATOM     15  C   UNL     1       8.069   7.024   0.000  0.00  0.00    +0.011 A 
ATOM     16  C   UNL     1       9.368   7.774   0.000  0.00  0.00    +0.001 A 
ATOM     17  C   UNL     1      10.667   7.024   0.000  0.00  0.00    +0.000 A 
ATOM     18  C   UNL     1      10.667   5.524   0.000  0.00  0.00    +0.001 A 
ATOM     19  C   UNL     1       9.368   4.774   0.000  0.00  0.00    +0.011 A 
ENDBRANCH  12  14
ENDBRANCH  11  12
ENDBRANCH  10  11
TORSDOF 4