REMARK  Name = 11826
REMARK  1 active torsions:
REMARK  status: ('A' for Active; 'I' for Inactive)
REMARK    1  A    between atoms: N_5  and  C_12
REMARK                            x       y       z     vdW  Elec       q    Type
REMARK                         _______ _______ _______ _____ _____    ______ ____
ROOT
ATOM      1  N   UNL     1     -10.156  -3.000   0.000  0.00  0.00    -0.174 NA
ATOM      2  C   UNL     1      -8.857  -2.250   0.000  0.00  0.00    +0.304 A 
ATOM      3  C   UNL     1      -7.558  -3.000   0.000  0.00  0.00    +0.195 A 
ATOM      4  C   UNL     1      -7.558  -4.500   0.000  0.00  0.00    +0.183 A 
ATOM      5  N   UNL     1      -6.132  -4.963   0.000  0.00  0.00    -0.258 N 
ATOM      6  H   UNL     1      -5.668  -6.390   0.000  0.00  0.00    +0.191 HD
ATOM      7  N   UNL     1      -5.250  -3.750   0.000  0.00  0.00    -0.171 N 
ATOM     14  N   UNL     1      -8.857  -5.250   0.000  0.00  0.00    -0.194 NA
ATOM     15  N   UNL     1      -6.132  -2.537   0.000  0.00  0.00    -0.142 NA
ATOM     16  O   UNL     1      -8.857  -0.750   0.000  0.00  0.00    -0.263 OA
ATOM     17  C   UNL     1     -10.156  -4.500   0.000  0.00  0.00    +0.218 A 
ATOM     18  N   UNL     1     -11.455  -5.250   0.000  0.00  0.00    -0.327 N 
ATOM     19  H   UNL     1     -11.455  -6.234   0.000  0.00  0.00    +0.145 HD
ATOM     20  H   UNL     1     -12.308  -4.758   0.000  0.00  0.00    +0.145 HD
ENDROOT
BRANCH   7   8
ATOM      8  C   UNL     1      -3.750  -3.750   0.000  0.00  0.00    +0.084 A 
ATOM      9  C   UNL     1      -3.000  -5.049   0.000  0.00  0.00    +0.029 A 
ATOM     10  C   UNL     1      -1.500  -5.049   0.000  0.00  0.00    +0.002 A 
ATOM     11  C   UNL     1      -0.750  -3.750   0.000  0.00  0.00    +0.000 A 
ATOM     12  C   UNL     1      -1.500  -2.451   0.000  0.00  0.00    +0.002 A 
ATOM     13  C   UNL     1      -3.000  -2.451   0.000  0.00  0.00    +0.029 A 
ENDBRANCH   7   8
TORSDOF 1