REMARK  Name = 11668
REMARK  4 active torsions:
REMARK  status: ('A' for Active; 'I' for Inactive)
REMARK    1  A    between atoms: C_3  and  N_26
REMARK    2  A    between atoms: N_9  and  C_17
REMARK    3  A    between atoms: C_10  and  N_25
REMARK    4  A    between atoms: C_18  and  N_26
REMARK                            x       y       z     vdW  Elec       q    Type
REMARK                         _______ _______ _______ _____ _____    ______ ____
ROOT
ATOM      1  C   UNL     1      -9.460   0.114   0.000  0.00  0.00    +0.223 A 
ATOM      2  N   UNL     1     -10.759   0.864   0.000  0.00  0.00    -0.283 N 
ATOM      3  H   UNL     1     -10.759   1.849   0.000  0.00  0.00    +0.155 HD
ATOM     11  N   UNL     1      -8.161   0.864   0.000  0.00  0.00    -0.195 NA
ATOM     12  C   UNL     1      -6.862   0.114   0.000  0.00  0.00    +0.165 A 
ATOM     13  N   UNL     1      -5.436   0.578   0.000  0.00  0.00    -0.249 N 
ATOM     14  C   UNL     1      -4.972   2.005   0.000  0.00  0.00    +0.174 C 
ATOM     15  N   UNL     1      -4.554  -0.636   0.000  0.00  0.00    -0.177 NA
ATOM     16  C   UNL     1      -5.436  -1.849   0.000  0.00  0.00    +0.148 A 
ATOM     17  C   UNL     1      -6.862  -1.386   0.000  0.00  0.00    +0.079 A 
ATOM     18  C   UNL     1      -8.161  -2.136   0.000  0.00  0.00    +0.139 A 
ATOM     28  N   UNL     1      -9.460  -1.386   0.000  0.00  0.00    -0.198 NA
ENDROOT
BRANCH   2   4
ATOM      4  C   UNL     1     -12.058   0.115   0.000  0.00  0.00    +0.035 A 
ATOM      5  C   UNL     1     -12.058  -1.386   0.000  0.00  0.00    +0.043 A 
ATOM      6  C   UNL     1     -13.357  -2.136   0.000  0.00  0.00    +0.043 A 
ATOM      7 CL   UNL     1     -13.357  -3.636   0.000  0.00  0.00    -0.083 Cl
ATOM      8  C   UNL     1     -14.656  -1.386   0.000  0.00  0.00    +0.020 A 
ATOM      9  C   UNL     1     -14.656   0.115   0.000  0.00  0.00    +0.003 A 
ATOM     10  C   UNL     1     -13.357   0.865   0.000  0.00  0.00    +0.023 A 
ENDBRANCH   2   4
BRANCH  18  19
ATOM     19  N   UNL     1      -8.161  -3.636   0.000  0.00  0.00    -0.299 N 
ATOM     20  H   UNL     1      -9.014  -4.128   0.000  0.00  0.00    +0.154 HD
BRANCH  19  21
ATOM     21  C   UNL     1      -6.862  -4.386   0.000  0.00  0.00    +0.034 A 
ATOM     22  C   UNL     1      -5.563  -3.636   0.000  0.00  0.00    +0.043 A 
ATOM     23  C   UNL     1      -4.264  -4.386   0.000  0.00  0.00    +0.043 A 
ATOM     24 CL   UNL     1      -2.965  -3.636   0.000  0.00  0.00    -0.083 Cl
ATOM     25  C   UNL     1      -4.264  -5.886   0.000  0.00  0.00    +0.020 A 
ATOM     26  C   UNL     1      -5.563  -6.636   0.000  0.00  0.00    +0.003 A 
ATOM     27  C   UNL     1      -6.862  -5.886   0.000  0.00  0.00    +0.023 A 
ENDBRANCH  19  21
ENDBRANCH  18  19
TORSDOF 3