REMARK  Name = 119969
REMARK  4 active torsions:
REMARK  status: ('A' for Active; 'I' for Inactive)
REMARK    1  A    between atoms: C_3  and  C_11
REMARK    2  A    between atoms: C_5  and  C_12
REMARK    3  A    between atoms: C_6  and  O_13
REMARK    4  A    between atoms: O_13  and  C_14
REMARK                            x       y       z     vdW  Elec       q    Type
REMARK                         _______ _______ _______ _____ _____    ______ ____
ROOT
ATOM      1  N   UNL     1      -7.245  -0.750   0.000  0.00  0.00    -0.232 NA
ATOM      2  C   UNL     1      -5.946  -1.500   0.000  0.00  0.00    +0.164 A 
ATOM      3  C   UNL     1      -5.946  -3.000   0.000  0.00  0.00    +0.022 A 
ATOM      4  C   UNL     1      -4.647  -3.750   0.000  0.00  0.00    +0.017 A 
ATOM      5  C   UNL     1      -3.348  -3.000   0.000  0.00  0.00    +0.068 A 
ATOM      6  C   UNL     1      -3.348  -1.500   0.000  0.00  0.00    +0.216 A 
ATOM      9  C   UNL     1      -7.245  -3.750   0.000  0.00  0.00    -0.038 A 
ATOM     10  C   UNL     1      -7.245  -5.250   0.000  0.00  0.00    +0.044 C 
ATOM     11  C   UNL     1      -8.544  -3.000   0.000  0.00  0.00    +0.027 A 
ATOM     12  N   UNL     1      -4.647  -0.750   0.000  0.00  0.00    -0.193 NA
ATOM     13  C   UNL     1      -8.544  -1.500   0.000  0.00  0.00    +0.041 A 
ATOM     14  C   UNL     1      -9.843  -0.750   0.000  0.00  0.00    +0.065 C 
ENDROOT
BRANCH   6   7
ATOM      7  O   UNL     1      -2.049  -0.750   0.000  0.00  0.00    -0.480 OA
ATOM      8  C   UNL     1      -0.750  -1.500   0.000  0.00  0.00    +0.279 C 
ENDBRANCH   6   7
TORSDOF 1