REMARK  Name = 11624
REMARK  3 active torsions:
REMARK  status: ('A' for Active; 'I' for Inactive)
REMARK    1  A    between atoms: S_3  and  C_9
REMARK    2  A    between atoms: S_3  and  C_12
REMARK    3  A    between atoms: N_5  and  C_18
REMARK                            x       y       z     vdW  Elec       q    Type
REMARK                         _______ _______ _______ _____ _____    ______ ____
ROOT
ATOM      1  N   UNL     1       2.177  -0.148   0.000  0.00  0.00    -0.228 NA
ATOM      2  C   UNL     1       1.295   1.065   0.000  0.00  0.00    +0.224 A 
ATOM      3  N   UNL     1       1.905   2.436   0.000  0.00  0.00    -0.216 NA
ATOM      4  C   UNL     1       3.397   2.592   0.000  0.00  0.00    +0.162 A 
ATOM      5  C   UNL     1       4.279   1.379   0.000  0.00  0.00    +0.071 A 
ATOM      6  C   UNL     1       5.705   1.842   0.000  0.00  0.00    +0.147 A 
ATOM      7  N   UNL     1       5.705   3.342   0.000  0.00  0.00    -0.177 NA
ATOM      8  N   UNL     1       4.279   3.806   0.000  0.00  0.00    -0.249 N 
ATOM      9  C   UNL     1       3.815   5.232   0.000  0.00  0.00    +0.174 C 
ATOM     10  C   UNL     1       3.669   0.009   0.000  0.00  0.00    +0.115 A 
ENDROOT
BRANCH  10  11
ATOM     11  S   UNL     1       4.550  -1.205   0.000  0.00  0.00    -0.069 S 
BRANCH  11  12
ATOM     12  C   UNL     1       6.042  -1.048   0.000  0.00  0.00    +0.014 A 
ATOM     13  C   UNL     1       6.924  -2.262   0.000  0.00  0.00    +0.016 A 
ATOM     14  C   UNL     1       8.416  -2.105   0.000  0.00  0.00    +0.021 A 
ATOM     15  C   UNL     1       9.026  -0.735   0.000  0.00  0.00    +0.041 A 
ATOM     16  C   UNL     1       8.144   0.479   0.000  0.00  0.00    +0.021 A 
ATOM     17 CL   UNL     1      10.518  -0.578   0.000  0.00  0.00    -0.084 Cl
ATOM     18  C   UNL     1       6.652   0.322   0.000  0.00  0.00    +0.016 A 
ENDBRANCH  11  12
ENDBRANCH  10  11
TORSDOF 2