REMARK  Name = 116508
REMARK  10 active torsions:
REMARK  status: ('A' for Active; 'I' for Inactive)
REMARK    1  A    between atoms: C_1  and  C_6
REMARK    2  A    between atoms: C_3  and  C_8
REMARK    3  A    between atoms: N_10  and  C_11
REMARK    4  A    between atoms: C_11  and  C_12
REMARK    5  A    between atoms: C_11  and  C_13
REMARK    6  A    between atoms: C_11  and  C_14
REMARK    7  A    between atoms: C_16  and  C_17
REMARK    8  A    between atoms: C_16  and  C_18
REMARK    9  A    between atoms: C_16  and  C_19
REMARK   10  A    between atoms: C_16  and  N_20
REMARK                            x       y       z     vdW  Elec       q    Type
REMARK                         _______ _______ _______ _____ _____    ______ ____
ROOT
ATOM      9  C   UNL     1      -5.471  -8.524   0.000  0.00  0.00    +0.037 A 
ATOM     10  C   UNL     1      -4.172  -9.274   0.000  0.00  0.00    +0.014 A 
ATOM     11  C   UNL     1      -2.873  -8.524   0.000  0.00  0.00    +0.014 A 
ATOM     12  C   UNL     1      -2.873  -7.024   0.000  0.00  0.00    +0.037 A 
ATOM     21  C   UNL     1      -4.172  -6.274   0.000  0.00  0.00    +0.014 A 
ATOM     22  C   UNL     1      -5.471  -7.024   0.000  0.00  0.00    +0.014 A 
ENDROOT
BRANCH   9   1
ATOM      1  C   UNL     1      -6.770  -9.274   0.000  0.00  0.00    +0.244 C 
ATOM      2  N   UNL     1      -8.069  -8.524   0.000  0.00  0.00    -0.307 N 
ATOM      3  H   UNL     1      -8.921  -9.017   0.000  0.00  0.00    +0.150 HD
ATOM      8  O   UNL     1      -6.770 -10.775   0.000  0.00  0.00    -0.270 OA
BRANCH   2   4
ATOM      4  C   UNL     1      -8.069  -7.024   0.000  0.00  0.00    +0.026 C 
ATOM      5  C   UNL     1      -6.569  -7.024   0.000  0.00  0.00    +0.031 C 
ATOM      6  C   UNL     1      -8.069  -5.524   0.000  0.00  0.00    +0.031 C 
ATOM      7  C   UNL     1      -9.569  -7.024   0.000  0.00  0.00    +0.031 C 
ENDBRANCH   2   4
ENDBRANCH   9   1
BRANCH  12  13
ATOM     13  C   UNL     1      -1.574  -6.274   0.000  0.00  0.00    +0.244 C 
ATOM     14  N   UNL     1      -1.574  -4.774   0.000  0.00  0.00    -0.307 N 
ATOM     15  H   UNL     1      -2.426  -4.282   0.000  0.00  0.00    +0.150 HD
ATOM     20  O   UNL     1      -0.275  -7.024   0.000  0.00  0.00    -0.270 OA
BRANCH  14  16
ATOM     16  C   UNL     1      -0.275  -4.024   0.000  0.00  0.00    +0.026 C 
ATOM     17  C   UNL     1       1.025  -3.275   0.000  0.00  0.00    +0.031 C 
ATOM     18  C   UNL     1       0.475  -5.324   0.000  0.00  0.00    +0.031 C 
ATOM     19  C   UNL     1      -1.025  -2.725   0.000  0.00  0.00    +0.031 C 
ENDBRANCH  14  16
ENDBRANCH  12  13
TORSDOF 4