REMARK  Name = 11891
REMARK  4 active torsions:
REMARK  status: ('A' for Active; 'I' for Inactive)
REMARK    1  A    between atoms: C_2  and  S_10
REMARK    2  A    between atoms: S_10  and  C_11
REMARK    3  A    between atoms: C_11  and  C_12
REMARK    4  A    between atoms: C_12  and  O_14
REMARK                            x       y       z     vdW  Elec       q    Type
REMARK                         _______ _______ _______ _____ _____    ______ ____
ROOT
ATOM      1  C   UNL     1      -5.705  -4.160   0.000  0.00  0.00    +0.029 A 
ATOM      2  C   UNL     1      -4.406  -4.910   0.000  0.00  0.00    +0.079 A 
ATOM      3  C   UNL     1      -4.406  -6.410   0.000  0.00  0.00    +0.040 A 
ATOM      4  C   UNL     1      -5.705  -7.160   0.000  0.00  0.00    +0.017 A 
ATOM      5  C   UNL     1      -7.005  -6.410   0.000  0.00  0.00    +0.001 A 
ATOM      6  S   UNL     1      -2.980  -6.874   0.000  0.00  0.00    -0.061 S 
ATOM      7  C   UNL     1      -2.098  -5.660   0.000  0.00  0.00    +0.136 A 
ATOM     14  N   UNL     1      -2.980  -4.447   0.000  0.00  0.00    -0.233 NA
ATOM     15  C   UNL     1      -7.005  -4.910   0.000  0.00  0.00    +0.002 A 
ENDROOT
BRANCH   7   8
ATOM      8  S   UNL     1      -0.598  -5.660   0.000  0.00  0.00    -0.087 S 
BRANCH   8   9
ATOM      9  C   UNL     1       0.152  -4.361   0.000  0.00  0.00    +0.196 C 
BRANCH   9  10
ATOM     10  C   UNL     1      -0.598  -3.062   0.000  0.00  0.00    +0.315 C 
ATOM     13  O   UNL     1      -2.098  -3.062   0.000  0.00  0.00    -0.250 OA
BRANCH  10  11
ATOM     11  O   UNL     1       0.152  -1.763   0.000  0.00  0.00    -0.480 OA
ATOM     12  H   UNL     1       1.089  -1.763   0.000  0.00  0.00    +0.295 HD
ENDBRANCH  10  11
ENDBRANCH   9  10
ENDBRANCH   8   9
ENDBRANCH   7   8
TORSDOF 4