REMARK  Name = 112975
REMARK  1 active torsions:
REMARK  status: ('A' for Active; 'I' for Inactive)
REMARK    1  A    between atoms: N_1  and  C_14
REMARK                            x       y       z     vdW  Elec       q    Type
REMARK                         _______ _______ _______ _____ _____    ______ ____
ROOT
ATOM      1  N   UNL     1      -8.254  -3.000   0.000  0.00  0.00    -0.301 NA
ATOM      2  C   UNL     1      -9.553  -3.750   0.000  0.00  0.00    +0.105 C 
ATOM      3  C   UNL     1      -6.955  -3.750   0.000  0.00  0.00    +0.119 C 
ATOM      4  C   UNL     1      -5.656  -3.000   0.000  0.00  0.00    -0.026 A 
ATOM      5  C   UNL     1      -4.357  -3.750   0.000  0.00  0.00    +0.054 A 
ATOM      6  C   UNL     1      -3.058  -3.000   0.000  0.00  0.00    +0.167 A 
ATOM      7  C   UNL     1      -3.058  -1.500   0.000  0.00  0.00    +0.167 A 
ATOM      8  C   UNL     1      -4.357  -0.750   0.000  0.00  0.00    +0.053 A 
ATOM      9  O   UNL     1      -1.632  -1.037   0.000  0.00  0.00    -0.453 OA
ATOM     10  C   UNL     1      -0.750  -2.250   0.000  0.00  0.00    +0.466 C 
ATOM     11  O   UNL     1      -1.632  -3.463   0.000  0.00  0.00    -0.453 OA
ATOM     12  C   UNL     1      -5.656  -1.500   0.000  0.00  0.00    -0.038 A 
ATOM     13  C   UNL     1      -6.955  -0.750   0.000  0.00  0.00    +0.051 C 
ATOM     14  C   UNL     1      -8.254  -1.500   0.000  0.00  0.00    +0.089 C 
ENDROOT
TORSDOF 0