REMARK  Name = 117446
REMARK  10 active torsions:
REMARK  status: ('A' for Active; 'I' for Inactive)
REMARK    1  A    between atoms: CA_1  and  C_10
REMARK    2  A    between atoms: C_2  and  C_12
REMARK    3  A    between atoms: C_2  and  C_13
REMARK    4  A    between atoms: C_3  and  C_14
REMARK    5  A    between atoms: C_3  and  C_15
REMARK    6  A    between atoms: C_6  and  O_7
REMARK    7  A    between atoms: C_6  and  C_15
REMARK    8  A    between atoms: O_7  and  C_16
REMARK    9  A    between atoms: C_10  and  OXT_18
REMARK   10  A    between atoms: C_16  and  C_17
REMARK                            x       y       z     vdW  Elec       q    Type
REMARK                         _______ _______ _______ _____ _____    ______ ____
ROOT
ATOM      1  CA  UNL     1      -3.123   7.650   0.000  0.00  0.00    +0.180 C 
ATOM      2  N   UNL     1      -2.660   6.223   0.000  0.00  0.00    -0.289 NA
ATOM      3  H   UNL     1      -1.233   5.760   0.000  0.00  0.00    +0.124 HD
ATOM      4  C   UNL     1      -3.873   5.342   0.000  0.00  0.00    +0.074 C 
ATOM     11  C   UNL     1      -4.877   4.227   0.000  0.00  0.00    +0.040 C 
ATOM     12  S   UNL     1      -5.087   6.223   0.000  0.00  0.00    -0.130 S 
ATOM     13  C   UNL     1      -4.623   7.650   0.000  0.00  0.00    +0.038 C 
ATOM     14  C   UNL     1      -4.623   9.150   0.000  0.00  0.00    +0.024 C 
ATOM     15  C   UNL     1      -6.123   7.650   0.000  0.00  0.00    +0.024 C 
ENDROOT
BRANCH   1  16
ATOM     16  C   UNL     1      -2.242   8.863   0.000  0.00  0.00    +0.323 C 
ATOM     19  O   UNL     1      -0.750   8.707   0.000  0.00  0.00    -0.249 OA
BRANCH  16  17
ATOM     17  OXT UNL     1      -2.852  10.234   0.000  0.00  0.00    -0.479 OA
ATOM     18  HXT UNL     1      -2.301  10.992   0.000  0.00  0.00    +0.295 HD
ENDBRANCH  16  17
ENDBRANCH   1  16
BRANCH   4   5
ATOM      5  C   UNL     1      -2.870   4.227   0.000  0.00  0.00    +0.153 C 
BRANCH   5   6
ATOM      6  C   UNL     1      -3.333   2.800   0.000  0.00  0.00    +0.310 C 
ATOM      7  O   UNL     1      -2.330   1.686   0.000  0.00  0.00    -0.251 OA
BRANCH   6   8
ATOM      8  O   UNL     1      -4.801   2.488   0.000  0.00  0.00    -0.465 OA
BRANCH   8   9
ATOM      9  C   UNL     1      -5.264   1.062   0.000  0.00  0.00    +0.229 C 
ATOM     10  C   UNL     1      -6.731   0.750   0.000  0.00  0.00    +0.048 C 
ENDBRANCH   8   9
ENDBRANCH   6   8
ENDBRANCH   5   6
ENDBRANCH   4   5
TORSDOF 6