REMARK  Name = 118723
REMARK  1 active torsions:
REMARK  status: ('A' for Active; 'I' for Inactive)
REMARK    1  A    between atoms: N_18  and  N_19
REMARK                            x       y       z     vdW  Elec       q    Type
REMARK                         _______ _______ _______ _____ _____    ______ ____
ROOT
ATOM      1  H   UNL     1       7.520   1.025   0.000  0.00  0.00    +0.167 HD
ATOM      2  N   UNL     1       6.221   0.275   0.000  0.00  0.00    -0.338 N 
ATOM      3  C   UNL     1       6.221  -1.226   0.000  0.00  0.00    +0.154 A 
ATOM      4  N   UNL     1       7.520  -1.975   0.000  0.00  0.00    -0.132 NA
ATOM     12  C   UNL     1       4.922  -1.976   0.000  0.00  0.00    +0.048 A 
ATOM     13  C   UNL     1       3.623  -1.226   0.000  0.00  0.00    +0.013 A 
ATOM     14  C   UNL     1       3.623   0.275   0.000  0.00  0.00    -0.002 A 
ATOM     15  C   UNL     1       2.324   1.025   0.000  0.00  0.00    +0.010 A 
ATOM     16  C   UNL     1       2.324   2.525   0.000  0.00  0.00    +0.001 A 
ATOM     17  C   UNL     1       3.623   3.275   0.000  0.00  0.00    +0.002 A 
ATOM     18  C   UNL     1       4.922   2.525   0.000  0.00  0.00    +0.026 A 
ATOM     19  C   UNL     1       4.922   1.025   0.000  0.00  0.00    +0.048 A 
ENDROOT
BRANCH   4   5
ATOM      5  N   UNL     1       8.819  -1.225   0.000  0.00  0.00    -0.157 NA
ATOM      6  C   UNL     1      10.118  -1.975   0.000  0.00  0.00    +0.041 C 
ATOM      7  C   UNL     1      10.118  -3.475   0.000  0.00  0.00    +0.053 C 
ATOM      8  C   UNL     1      11.417  -4.225   0.000  0.00  0.00    +0.006 C 
ATOM      9  C   UNL     1      12.716  -3.475   0.000  0.00  0.00    +0.001 C 
ATOM     10  C   UNL     1      12.716  -1.975   0.000  0.00  0.00    +0.006 C 
ATOM     11  C   UNL     1      11.417  -1.225   0.000  0.00  0.00    +0.053 C 
ENDBRANCH   4   5
TORSDOF 1