REMARK  Name = 114449
REMARK  7 active torsions:
REMARK  status: ('A' for Active; 'I' for Inactive)
REMARK    1  A    between atoms: N_2  and  C_17
REMARK    2  A    between atoms: N_3  and  C_19
REMARK    3  A    between atoms: N_5  and  C_8
REMARK    4  A    between atoms: N_6  and  C_12
REMARK    5  A    between atoms: C_7  and  N_18
REMARK    6  A    between atoms: C_13  and  S_20
REMARK    7  A    between atoms: S_20  and  N_23
REMARK                            x       y       z     vdW  Elec       q    Type
REMARK                         _______ _______ _______ _____ _____    ______ ____
ROOT
ATOM     11  N   UNL     1      -1.226   2.523   0.000  0.00  0.00    -0.140 NA
ATOM     12  N   UNL     1       0.264   2.696   0.000  0.00  0.00    -0.149 NA
ENDROOT
BRANCH  11   6
ATOM      1  O   UNL     1      -4.806   7.339   0.000  0.00  0.00    -0.246 OA
ATOM      2  C   UNL     1      -3.911   6.135   0.000  0.00  0.00    +0.333 A 
ATOM      3  N   UNL     1      -2.421   6.308   0.000  0.00  0.00    -0.262 N 
ATOM      4  C   UNL     1      -1.826   7.685   0.000  0.00  0.00    +0.157 C 
ATOM      5  C   UNL     1      -1.526   5.104   0.000  0.00  0.00    +0.285 A 
ATOM      6  C   UNL     1      -2.121   3.727   0.000  0.00  0.00    +0.188 A 
ATOM      7  C   UNL     1      -3.611   3.554   0.000  0.00  0.00    +0.133 A 
ATOM     25  O   UNL     1      -0.036   5.277   0.000  0.00  0.00    -0.265 OA
ATOM     26  N   UNL     1      -4.506   4.758   0.000  0.00  0.00    -0.283 N 
ATOM     27  C   UNL     1      -5.996   4.585   0.000  0.00  0.00    +0.155 C 
BRANCH   7   8
ATOM      8  N   UNL     1      -4.206   2.177   0.000  0.00  0.00    -0.342 N 
ATOM      9  H   UNL     1      -3.619   1.387   0.000  0.00  0.00    +0.144 HD
ATOM     10  H   UNL     1      -5.184   2.064   0.000  0.00  0.00    +0.144 HD
ENDBRANCH   7   8
ENDBRANCH  11   6
BRANCH  12  13
ATOM     13  C   UNL     1       1.354   1.666   0.000  0.00  0.00    +0.086 A 
ATOM     14  C   UNL     1       2.791   2.095   0.000  0.00  0.00    +0.031 A 
ATOM     15  C   UNL     1       3.882   1.065   0.000  0.00  0.00    +0.030 A 
ATOM     16  C   UNL     1       3.535  -0.394   0.000  0.00  0.00    +0.105 A 
ATOM     23  C   UNL     1       2.097  -0.823   0.000  0.00  0.00    +0.030 A 
ATOM     24  C   UNL     1       1.007   0.207   0.000  0.00  0.00    +0.031 A 
BRANCH  16  17
ATOM     17  S   UNL     1       4.625  -1.424   0.000  0.00  0.00    +0.056 S 
ATOM     21  O   UNL     1       3.595  -2.515   0.000  0.00  0.00    -0.153 OA
ATOM     22  O   UNL     1       5.655  -0.334   0.000  0.00  0.00    -0.153 OA
BRANCH  17  18
ATOM     18  N   UNL     1       5.715  -2.455   0.000  0.00  0.00    -0.204 NA
ATOM     19  H   UNL     1       6.693  -2.163   0.000  0.00  0.00    +0.144 HD
ATOM     20  H   UNL     1       5.479  -3.447   0.000  0.00  0.00    +0.144 HD
ENDBRANCH  17  18
ENDBRANCH  16  17
ENDBRANCH  12  13
TORSDOF 5