REMARK  Name = 35949
REMARK  5 active torsions:
REMARK  status: ('A' for Active; 'I' for Inactive)
REMARK    1  A    between atoms: N_3  and  C_25
REMARK    2  A    between atoms: C_14  and  C_34
REMARK    3  A    between atoms: C_22  and  C_34
REMARK    4  A    between atoms: C_24  and  C_35
REMARK    5  A    between atoms: C_34  and  C_35
REMARK                            x       y       z     vdW  Elec       q    Type
REMARK                         _______ _______ _______ _____ _____    ______ ____
ROOT
ATOM      5  C   UNL     1      -0.320   0.103   0.000  0.00  0.00    +0.057 C 
ENDROOT
BRANCH   5   4
ATOM      1  H   UNL     1      -3.855   4.026   0.000  0.00  0.00    +0.165 HD
ATOM      2  N   UNL     1      -2.556   3.276   0.000  0.00  0.00    -0.360 N 
ATOM      3  C   UNL     1      -2.398   1.785   0.000  0.00  0.00    +0.087 A 
ATOM      4  C   UNL     1      -0.931   1.473   0.000  0.00  0.00    -0.015 A 
ATOM     31  C   UNL     1      -0.182   2.773   0.000  0.00  0.00    +0.003 A 
ATOM     32  C   UNL     1       1.286   3.085   0.000  0.00  0.00    +0.010 A 
ATOM     33  C   UNL     1       1.748   4.512   0.000  0.00  0.00    +0.001 A 
ATOM     34  C   UNL     1       0.744   5.626   0.000  0.00  0.00    +0.002 A 
ATOM     35  C   UNL     1      -0.723   5.314   0.000  0.00  0.00    +0.026 A 
ATOM     36  C   UNL     1      -1.186   3.887   0.000  0.00  0.00    +0.047 A 
ENDBRANCH   5   4
BRANCH   5  21
ATOM     21  C   UNL     1       1.172  -0.053   0.000  0.00  0.00    -0.015 A 
ATOM     22  C   UNL     1       1.922  -1.352   0.000  0.00  0.00    +0.087 A 
ATOM     23  N   UNL     1       3.389  -1.039   0.000  0.00  0.00    -0.360 N 
ATOM     24  C   UNL     1       3.545   0.453   0.000  0.00  0.00    +0.047 A 
ATOM     25  C   UNL     1       4.758   1.335   0.000  0.00  0.00    +0.026 A 
ATOM     26  C   UNL     1       4.601   2.827   0.000  0.00  0.00    +0.002 A 
ATOM     27  C   UNL     1       3.230   3.436   0.000  0.00  0.00    +0.001 A 
ATOM     28  C   UNL     1       2.017   2.554   0.000  0.00  0.00    +0.010 A 
ATOM     29  H   UNL     1       4.504  -2.042   0.000  0.00  0.00    +0.165 HD
ATOM     30  C   UNL     1       2.175   1.062   0.000  0.00  0.00    +0.003 A 
ENDBRANCH   5  21
BRANCH   5   6
ATOM      6  C   UNL     1      -1.202  -1.111   0.000  0.00  0.00    +0.050 C 
BRANCH   6   7
ATOM      7  C   UNL     1      -0.362  -2.354   0.000  0.00  0.00    -0.025 A 
ATOM      8  C   UNL     1       1.134  -2.249   0.000  0.00  0.00    +0.005 A 
ATOM      9  C   UNL     1       1.973  -3.492   0.000  0.00  0.00    +0.000 A 
ATOM     10  C   UNL     1       1.316  -4.840   0.000  0.00  0.00    +0.002 A 
ATOM     11  C   UNL     1      -0.180  -4.946   0.000  0.00  0.00    +0.023 A 
ATOM     12  C   UNL     1      -1.019  -3.702   0.000  0.00  0.00    +0.033 A 
BRANCH  12  13
ATOM     13  N   UNL     1      -2.515  -3.808   0.000  0.00  0.00    -0.327 N 
ATOM     14  C   UNL     1      -3.172  -5.156   0.000  0.00  0.00    +0.128 C 
ATOM     15  C   UNL     1      -4.669  -5.261   0.000  0.00  0.00    +0.184 C 
ATOM     16  S   UNL     1      -5.508  -4.018   0.000  0.00  0.00    -0.028 S 
ATOM     17  O   UNL     1      -6.587  -5.061   0.000  0.00  0.00    -0.174 OA
ATOM     18  C   UNL     1      -4.851  -2.670   0.000  0.00  0.00    +0.184 C 
ATOM     19  O   UNL     1      -6.722  -3.137   0.000  0.00  0.00    -0.174 OA
ATOM     20  C   UNL     1      -3.355  -2.564   0.000  0.00  0.00    +0.128 C 
ENDBRANCH  12  13
ENDBRANCH   6   7
ENDBRANCH   5   6
TORSDOF 5