REMARK  Name = 314622
REMARK  5 active torsions:
REMARK  status: ('A' for Active; 'I' for Inactive)
REMARK    1  A    between atoms: O_1  and  C_3
REMARK    2  A    between atoms: O_1  and  C_25
REMARK    3  A    between atoms: O_2  and  C_4
REMARK    4  A    between atoms: O_2  and  C_26
REMARK    5  A    between atoms: N_14  and  C_27
REMARK                            x       y       z     vdW  Elec       q    Type
REMARK                         _______ _______ _______ _____ _____    ______ ____
ROOT
ATOM      3  C   UNL     1      -4.062  -0.129   0.000  0.00  0.00    +0.162 A 
ATOM      4  C   UNL     1      -4.189  -1.623   0.000  0.00  0.00    +0.162 A 
ATOM      5  C   UNL     1      -2.957  -2.480   0.000  0.00  0.00    +0.063 A 
ATOM      6  C   UNL     1      -1.600  -1.842   0.000  0.00  0.00    +0.051 A 
ATOM      7  C   UNL     1      -0.368  -2.699   0.000  0.00  0.00    +0.259 A 
ATOM      8  O   UNL     1      -0.494  -4.193   0.000  0.00  0.00    -0.267 OA
ATOM      9  N   UNL     1       0.989  -2.061   0.000  0.00  0.00    -0.310 N 
ATOM     10  C   UNL     1       2.221  -2.917   0.000  0.00  0.00    +0.152 C 
ATOM     11  C   UNL     1       1.115  -0.566   0.000  0.00  0.00    +0.064 A 
ATOM     12  C   UNL     1       2.311   0.341   0.000  0.00  0.00    +0.014 A 
ATOM     13  C   UNL     1       3.784   0.059   0.000  0.00  0.00    +0.060 A 
ATOM     14  C   UNL     1       4.765   1.194   0.000  0.00  0.00    +0.167 A 
ATOM     15  O   UNL     1       6.264   1.225   0.000  0.00  0.00    -0.453 OA
ATOM     16  C   UNL     1       6.698   2.660   0.000  0.00  0.00    +0.466 C 
ATOM     17  O   UNL     1       5.467   3.517   0.000  0.00  0.00    -0.453 OA
ATOM     18  C   UNL     1       4.272   2.611   0.000  0.00  0.00    +0.167 A 
ATOM     19  C   UNL     1       2.799   2.892   0.000  0.00  0.00    +0.062 A 
ATOM     20  C   UNL     1       1.818   1.757   0.000  0.00  0.00    +0.035 A 
ATOM     21  C   UNL     1       0.318   1.727   0.000  0.00  0.00    +0.196 C 
ATOM     22  O   UNL     1      -0.588   2.922   0.000  0.00  0.00    -0.287 OA
ATOM     23  C   UNL     1      -0.116   0.291   0.000  0.00  0.00    +0.054 A 
ATOM     24  C   UNL     1      -1.473  -0.347   0.000  0.00  0.00    +0.004 A 
ATOM     27  C   UNL     1      -2.705   0.509   0.000  0.00  0.00    +0.058 A 
ENDROOT
BRANCH   3   1
ATOM      1  O   UNL     1      -5.294   0.728   0.000  0.00  0.00    -0.491 OA
ATOM      2  C   UNL     1      -6.651   0.090   0.000  0.00  0.00    +0.277 C 
ENDBRANCH   3   1
BRANCH   4  25
ATOM     25  O   UNL     1      -5.546  -2.261   0.000  0.00  0.00    -0.491 OA
ATOM     26  C   UNL     1      -6.777  -1.405   0.000  0.00  0.00    +0.277 C 
ENDBRANCH   4  25
TORSDOF 2