REMARK  Name = 330515
REMARK  13 active torsions:
REMARK  status: ('A' for Active; 'I' for Inactive)
REMARK    1  A    between atoms: C_1  and  C_22
REMARK    2  A    between atoms: C_2  and  C_23
REMARK    3  A    between atoms: C_3  and  O_25
REMARK    4  A    between atoms: C_4  and  O_26
REMARK    5  A    between atoms: C_5  and  O_27
REMARK    6  A    between atoms: C_6  and  O_28
REMARK    7  A    between atoms: C_7  and  O_29
REMARK    8  A    between atoms: C_14  and  O_25
REMARK    9  A    between atoms: C_15  and  O_26
REMARK   10  A    between atoms: C_18  and  O_24
REMARK   11  A    between atoms: C_19  and  O_27
REMARK   12  A    between atoms: C_20  and  O_28
REMARK   13  A    between atoms: C_21  and  O_29
REMARK                            x       y       z     vdW  Elec       q    Type
REMARK                         _______ _______ _______ _____ _____    ______ ____
ROOT
ATOM      1  C   UNL     1      -5.445   1.444   0.000  0.00  0.00    +0.008 C 
ATOM      2  C   UNL     1      -6.506   0.383   0.000  0.00  0.00    -0.007 C 
ATOM      3  C   UNL     1      -7.892   0.957   0.000  0.00  0.00    -0.007 C 
ATOM      4  C   UNL     1      -9.278   0.383   0.000  0.00  0.00    +0.039 C 
ATOM      5  C   UNL     1      -9.852  -1.003   0.000  0.00  0.00    -0.032 A 
ATOM      6  C   UNL     1      -9.278  -2.389   0.000  0.00  0.00    +0.035 A 
ATOM      7  C   UNL     1     -10.191  -3.579   0.000  0.00  0.00    +0.173 A 
ATOM     10  C   UNL     1     -11.678  -3.383   0.000  0.00  0.00    +0.204 A 
ATOM     13  C   UNL     1     -12.252  -1.997   0.000  0.00  0.00    +0.165 A 
ATOM     16  C   UNL     1      -7.892  -2.963   0.000  0.00  0.00    +0.035 A 
ATOM     17  C   UNL     1      -8.088  -4.450   0.000  0.00  0.00    +0.170 A 
ATOM     20  C   UNL     1      -6.898  -5.363   0.000  0.00  0.00    +0.204 A 
ATOM     23  C   UNL     1      -5.512  -4.789   0.000  0.00  0.00    +0.165 A 
ATOM     26  C   UNL     1      -5.316  -3.302   0.000  0.00  0.00    +0.054 A 
ATOM     27  C   UNL     1      -6.506  -2.389   0.000  0.00  0.00    -0.032 A 
ATOM     28  C   UNL     1     -11.339  -0.807   0.000  0.00  0.00    +0.054 A 
ATOM     29  C   UNL     1      -7.892   2.457   0.000  0.00  0.00    +0.008 C 
ATOM     30  C   UNL     1      -5.932  -1.003   0.000  0.00  0.00    +0.039 C 
ENDROOT
BRANCH   7   8
ATOM      8  O   UNL     1      -9.617  -4.964   0.000  0.00  0.00    -0.491 OA
ATOM      9  C   UNL     1     -10.530  -6.154   0.000  0.00  0.00    +0.277 C 
ENDBRANCH   7   8
BRANCH  10  11
ATOM     11  O   UNL     1     -12.591  -4.573   0.000  0.00  0.00    -0.488 OA
ATOM     12  C   UNL     1     -14.078  -4.377   0.000  0.00  0.00    +0.277 C 
ENDBRANCH  10  11
BRANCH  13  14
ATOM     14  O   UNL     1     -13.739  -1.801   0.000  0.00  0.00    -0.491 OA
ATOM     15  C   UNL     1     -14.313  -0.415   0.000  0.00  0.00    +0.277 C 
ENDBRANCH  13  14
BRANCH  17  18
ATOM     18  O   UNL     1      -9.473  -5.024   0.000  0.00  0.00    -0.503 OA
ATOM     19  H   UNL     1      -9.669  -6.511   0.000  0.00  0.00    +0.292 HD
ENDBRANCH  17  18
BRANCH  20  21
ATOM     21  O   UNL     1      -7.093  -6.850   0.000  0.00  0.00    -0.488 OA
ATOM     22  C   UNL     1      -5.903  -7.763   0.000  0.00  0.00    +0.277 C 
ENDBRANCH  20  21
BRANCH  23  24
ATOM     24  O   UNL     1      -4.322  -5.702   0.000  0.00  0.00    -0.491 OA
ATOM     25  C   UNL     1      -2.936  -5.128   0.000  0.00  0.00    +0.277 C 
ENDBRANCH  23  24
TORSDOF 6