REMARK  Name = 329696
REMARK  9 active torsions:
REMARK  status: ('A' for Active; 'I' for Inactive)
REMARK    1  A    between atoms: O_1  and  C_2
REMARK    2  A    between atoms: O_1  and  C_3
REMARK    3  A    between atoms: C_2  and  C_4
REMARK    4  A    between atoms: C_4  and  C_9
REMARK    5  A    between atoms: C_8  and  C_13
REMARK    6  A    between atoms: C_12  and  C_18
REMARK    7  A    between atoms: C_21  and  C_26
REMARK    8  A    between atoms: C_25  and  C_28
REMARK    9  A    between atoms: C_25  and  C_29
REMARK                            x       y       z     vdW  Elec       q    Type
REMARK                         _______ _______ _______ _____ _____    ______ ____
ROOT
ATOM      2  C   UNL     1       7.625   2.338   0.000  0.00  0.00    +0.191 C 
ATOM      3  C   UNL     1       6.326   3.088   0.000  0.00  0.00    +0.082 C 
ATOM      4  C   UNL     1       5.027   2.338   0.000  0.00  0.00    +0.100 C 
ATOM      5  O   UNL     1       4.715   0.871   0.000  0.00  0.00    -0.340 OA
ATOM      6  C   UNL     1       3.223   0.714   0.000  0.00  0.00    +0.166 C 
ATOM      7  O   UNL     1       2.613   2.084   0.000  0.00  0.00    -0.343 OA
ATOM      8  C   UNL     1       3.535  -0.753   0.000  0.00  0.00    +0.074 C 
ATOM      9  C   UNL     1       1.797   0.251   0.000  0.00  0.00    +0.074 C 
ATOM     10  C   UNL     1       3.728   3.088   0.000  0.00  0.00    +0.161 C 
ATOM     11  C   UNL     1       3.728   4.588   0.000  0.00  0.00    +0.113 C 
ATOM     12  C   UNL     1       5.027   5.338   0.000  0.00  0.00    +0.161 C 
ATOM     13  O   UNL     1       5.027   6.838   0.000  0.00  0.00    -0.292 OA
ATOM     14  C   UNL     1       6.326   4.588   0.000  0.00  0.00    -0.008 C 
ATOM     15  C   UNL     1       6.326   3.088   0.000  0.00  0.00    +0.047 C 
ATOM     16  C   UNL     1       7.625   5.338   0.000  0.00  0.00    +0.024 C 
ATOM     17  C   UNL     1       8.924   4.588   0.000  0.00  0.00    +0.211 C 
ATOM     18  O   UNL     1      10.351   5.052   0.000  0.00  0.00    -0.453 OA
ATOM     19  C   UNL     1      11.233   3.838   0.000  0.00  0.00    +0.336 C 
ATOM     20  O   UNL     1      12.733   3.838   0.000  0.00  0.00    -0.245 OA
ATOM     21  C   UNL     1      10.351   2.625   0.000  0.00  0.00    +0.040 C 
ATOM     22  C   UNL     1      10.814   1.198   0.000  0.00  0.00    +0.020 C 
ATOM     23  C   UNL     1       6.241   1.456   0.000  0.00  0.00    +0.044 C 
ATOM     24  C   UNL     1       8.924   3.088   0.000  0.00  0.00    +0.111 C 
ENDROOT
BRANCH   2   1
ATOM      1  O   UNL     1       7.625   0.838   0.000  0.00  0.00    -0.457 OA
BRANCH   1  25
ATOM     25  C   UNL     1       8.774  -0.126   0.000  0.00  0.00    +0.335 C 
ATOM     26  O   UNL     1      10.184   0.387   0.000  0.00  0.00    -0.245 OA
BRANCH  25  27
ATOM     27  C   UNL     1       8.514  -1.603   0.000  0.00  0.00    +0.029 C 
ATOM     28  C   UNL     1       7.104  -2.116   0.000  0.00  0.00    +0.051 C 
ATOM     29  C   UNL     1       9.663  -2.567   0.000  0.00  0.00    -0.020 C 
ATOM     30  C   UNL     1       9.402  -4.045   0.000  0.00  0.00    +0.036 C 
ENDBRANCH  25  27
ENDBRANCH   1  25
ENDBRANCH   2   1
TORSDOF 3