REMARK  Name = 349438
REMARK  6 active torsions:
REMARK  status: ('A' for Active; 'I' for Inactive)
REMARK    1  A    between atoms: C_5  and  C_6
REMARK    2  A    between atoms: C_6  and  C_7
REMARK    3  A    between atoms: C_7  and  C_9
REMARK    4  A    between atoms: C_9  and  C_10
REMARK    5  A    between atoms: C_10  and  O_11
REMARK    6  A    between atoms: C_10  and  C_12
REMARK                            x       y       z     vdW  Elec       q    Type
REMARK                         _______ _______ _______ _____ _____    ______ ____
ROOT
ATOM      3  C   UNL     1      -6.321  -0.303   0.000  0.00  0.00    +0.166 C 
ATOM      4  O   UNL     1      -6.009   1.164   0.000  0.00  0.00    -0.292 OA
ENDROOT
BRANCH   3   2
ATOM      1  C   UNL     1      -8.961   0.115   0.000  0.00  0.00    +0.206 A 
ATOM      2  C   UNL     1      -7.747  -0.767   0.000  0.00  0.00    +0.055 A 
ATOM     11  C   UNL     1      -8.211  -2.193   0.000  0.00  0.00    +0.052 A 
ATOM     12  C   UNL     1      -9.711  -2.193   0.000  0.00  0.00    +0.195 A 
ATOM     13  O   UNL     1     -10.174  -0.767   0.000  0.00  0.00    -0.470 OA
ENDBRANCH   3   2
BRANCH   3   5
ATOM      5  C   UNL     1      -5.206  -1.307   0.000  0.00  0.00    +0.082 C 
BRANCH   5   6
ATOM      6  C   UNL     1      -3.780  -0.844   0.000  0.00  0.00    +0.039 C 
BRANCH   6   7
ATOM      7  C   UNL     1      -2.665  -1.847   0.000  0.00  0.00    +0.112 C 
ATOM      8  C   UNL     1      -1.238  -1.384   0.000  0.00  0.00    +0.037 C 
BRANCH   7   9
ATOM      9  O   UNL     1      -2.977  -3.314   0.000  0.00  0.00    -0.392 OA
ATOM     10  H   UNL     1      -3.899  -3.614   0.000  0.00  0.00    +0.210 HD
ENDBRANCH   7   9
ENDBRANCH   6   7
ENDBRANCH   5   6
ENDBRANCH   3   5
TORSDOF 5