REMARK  Name = 123115
REMARK  10 active torsions:
REMARK  status: ('A' for Active; 'I' for Inactive)
REMARK    1  A    between atoms: C_1  and  N_29
REMARK    2  A    between atoms: C_2  and  C_21
REMARK    3  A    between atoms: C_8  and  O_23
REMARK    4  A    between atoms: C_9  and  C_16
REMARK    5  A    between atoms: C_16  and  O_25
REMARK    6  A    between atoms: C_19  and  C_20
REMARK    7  A    between atoms: C_19  and  N_29
REMARK    8  A    between atoms: C_20  and  C_22
REMARK    9  A    between atoms: O_23  and  C_24
REMARK   10  A    between atoms: O_25  and  C_26
REMARK                            x       y       z     vdW  Elec       q    Type
REMARK                         _______ _______ _______ _____ _____    ______ ____
ROOT
ATOM      1  C   UNL     1       5.946   4.834   0.000  0.00  0.00    +0.081 C 
ATOM      7  C   UNL     1       7.245   5.584   0.000  0.00  0.00    +0.206 C 
ATOM      8  O   UNL     1       7.245   7.084   0.000  0.00  0.00    -0.286 OA
ATOM      9  C   UNL     1       8.544   4.834   0.000  0.00  0.00    +0.037 C 
ATOM     10  C   UNL     1       9.971   5.297   0.000  0.00  0.00    +0.114 C 
ATOM     18  C   UNL     1      10.852   4.084   0.000  0.00  0.00    +0.163 C 
ATOM     21  C   UNL     1      12.279   3.620   0.000  0.00  0.00    +0.124 C 
ATOM     22  N   UNL     1      13.578   2.870   0.000  0.00  0.00    -0.302 NA
ATOM     23  H   UNL     1      14.598   2.870   0.000  0.00  0.00    +0.123 HD
ATOM     24  C   UNL     1      12.279   2.120   0.000  0.00  0.00    +0.093 C 
ATOM     25  C   UNL     1      10.852   1.657   0.000  0.00  0.00    +0.128 C 
ATOM     26  N   UNL     1       9.971   2.870   0.000  0.00  0.00    -0.295 N 
ATOM     27  C   UNL     1       8.544   3.334   0.000  0.00  0.00    +0.087 C 
ATOM     28  C   UNL     1       7.245   2.584   0.000  0.00  0.00    +0.205 C 
ATOM     29  O   UNL     1       7.245   1.084   0.000  0.00  0.00    -0.286 OA
ATOM     30  C   UNL     1       5.946   3.334   0.000  0.00  0.00    +0.023 C 
ATOM     31  C   UNL     1       4.647   2.584   0.000  0.00  0.00    +0.050 C 
ENDROOT
BRANCH   1   2
ATOM      2  N   UNL     1       4.647   5.584   0.000  0.00  0.00    -0.341 N 
ATOM      3  H   UNL     1       4.647   6.568   0.000  0.00  0.00    +0.146 HD
BRANCH   2   4
ATOM      4  C   UNL     1       3.348   4.834   0.000  0.00  0.00    +0.101 C 
BRANCH   4   5
ATOM      5  C   UNL     1       2.049   5.584   0.000  0.00  0.00    +0.015 C 
ATOM      6  C   UNL     1       0.750   4.834   0.000  0.00  0.00    +0.005 C 
ENDBRANCH   4   5
ENDBRANCH   2   4
ENDBRANCH   1   2
BRANCH  18  19
ATOM     19  O   UNL     1      11.266   5.526   0.000  0.00  0.00    -0.357 OA
ATOM     20  C   UNL     1      12.721   5.889   0.000  0.00  0.00    +0.196 C 
ENDBRANCH  18  19
BRANCH  10  11
ATOM     11  C   UNL     1      10.434   6.724   0.000  0.00  0.00    +0.246 C 
BRANCH  11  12
ATOM     12  O   UNL     1      11.902   7.036   0.000  0.00  0.00    -0.450 OA
BRANCH  12  13
ATOM     13  C   UNL     1      12.365   8.462   0.000  0.00  0.00    +0.398 C 
ATOM     14  N   UNL     1      13.832   8.774   0.000  0.00  0.00    -0.295 N 
ATOM     15  H   UNL     1      14.137   9.711   0.000  0.00  0.00    +0.148 HD
ATOM     16  H   UNL     1      14.491   8.043   0.000  0.00  0.00    +0.148 HD
ATOM     17  O   UNL     1      11.361   9.577   0.000  0.00  0.00    -0.227 OA
ENDBRANCH  12  13
ENDBRANCH  11  12
ENDBRANCH  10  11
TORSDOF 7