REMARK  Name = 28002
REMARK  1 active torsions:
REMARK  status: ('A' for Active; 'I' for Inactive)
REMARK    1  A    between atoms: C_13  and  C_20
REMARK                            x       y       z     vdW  Elec       q    Type
REMARK                         _______ _______ _______ _____ _____    ______ ____
ROOT
ATOM      1  C   UNL     1      -0.275  -2.525   0.000  0.00  0.00    +0.001 A 
ATOM      2  C   UNL     1       1.025  -3.275   0.000  0.00  0.00    +0.001 A 
ATOM      3  C   UNL     1       1.025  -4.774   0.000  0.00  0.00    +0.008 A 
ATOM      4  C   UNL     1      -0.275  -5.524   0.000  0.00  0.00    -0.017 A 
ATOM      5  C   UNL     1      -0.275  -7.024   0.000  0.00  0.00    +0.009 A 
ATOM      6  C   UNL     1      -1.574  -7.774   0.000  0.00  0.00    +0.010 A 
ATOM      7  C   UNL     1      -2.873  -7.024   0.000  0.00  0.00    -0.002 A 
ATOM      8  C   UNL     1      -4.172  -7.774   0.000  0.00  0.00    +0.029 A 
ATOM      9  C   UNL     1      -4.172  -9.274   0.000  0.00  0.00    +0.051 C 
ATOM     10  C   UNL     1      -5.471  -7.024   0.000  0.00  0.00    +0.216 A 
ATOM     11  N   UNL     1      -5.471  -5.524   0.000  0.00  0.00    -0.165 N 
ATOM     12  C   UNL     1      -6.770  -4.774   0.000  0.00  0.00    +0.315 A 
ATOM     13  C   UNL     1      -8.069  -5.524   0.000  0.00  0.00    +0.070 A 
ATOM     14  C   UNL     1      -8.069  -7.024   0.000  0.00  0.00    +0.012 A 
ATOM     15  C   UNL     1      -4.172  -4.774   0.000  0.00  0.00    +0.324 A 
ATOM     16  C   UNL     1      -6.770  -7.774   0.000  0.00  0.00    +0.079 A 
ATOM     17  C   UNL     1      -2.873  -5.524   0.000  0.00  0.00    +0.054 A 
ATOM     18  C   UNL     1      -1.574  -4.774   0.000  0.00  0.00    -0.005 A 
ATOM     19  C   UNL     1      -1.574  -3.275   0.000  0.00  0.00    +0.009 A 
ENDROOT
TORSDOF 0