REMARK  Name = 128305
REMARK  7 active torsions:
REMARK  status: ('A' for Active; 'I' for Inactive)
REMARK    1  A    between atoms: C_4  and  O_20
REMARK    2  A    between atoms: C_5  and  C_8
REMARK    3  A    between atoms: C_6  and  O_22
REMARK    4  A    between atoms: C_15  and  O_18
REMARK    5  A    between atoms: C_17  and  O_19
REMARK    6  A    between atoms: O_20  and  C_21
REMARK    7  A    between atoms: O_22  and  C_23
REMARK                            x       y       z     vdW  Elec       q    Type
REMARK                         _______ _______ _______ _____ _____    ______ ____
ROOT
ATOM      1  O   UNL     1     -12.716  -1.025   0.000  0.00  0.00    -0.287 OA
ATOM      2  C   UNL     1     -11.417  -0.275   0.000  0.00  0.00    +0.197 A 
ATOM      3  C   UNL     1     -11.417   1.226   0.000  0.00  0.00    +0.105 A 
ATOM      4  C   UNL     1     -12.716   1.976   0.000  0.00  0.00    +0.135 A 
ATOM      7  C   UNL     1     -12.716   3.475   0.000  0.00  0.00    +0.091 A 
ATOM      8  C   UNL     1     -11.417   4.226   0.000  0.00  0.00    +0.124 A 
ATOM     11  C   UNL     1     -10.118   3.475   0.000  0.00  0.00    +0.092 A 
ATOM     12  C   UNL     1     -10.118   1.976   0.000  0.00  0.00    +0.146 A 
ATOM     13  O   UNL     1      -8.819   1.226   0.000  0.00  0.00    -0.454 OA
ATOM     14  C   UNL     1      -8.819  -0.275   0.000  0.00  0.00    +0.139 A 
ATOM     25  C   UNL     1     -10.118  -1.025   0.000  0.00  0.00    +0.098 A 
ENDROOT
BRANCH  14  15
ATOM     15  C   UNL     1      -7.520  -1.025   0.000  0.00  0.00    +0.021 A 
ATOM     16  C   UNL     1      -7.520  -2.525   0.000  0.00  0.00    +0.015 A 
ATOM     17  C   UNL     1      -6.221  -3.275   0.000  0.00  0.00    +0.050 A 
ATOM     18  C   UNL     1      -4.922  -2.525   0.000  0.00  0.00    +0.162 A 
ATOM     21  C   UNL     1      -4.922  -1.025   0.000  0.00  0.00    +0.162 A 
ATOM     24  C   UNL     1      -6.221  -0.275   0.000  0.00  0.00    +0.061 A 
BRANCH  18  19
ATOM     19  O   UNL     1      -3.623  -3.275   0.000  0.00  0.00    -0.491 OA
ATOM     20  C   UNL     1      -2.324  -2.525   0.000  0.00  0.00    +0.277 C 
ENDBRANCH  18  19
BRANCH  21  22
ATOM     22  O   UNL     1      -3.623  -0.275   0.000  0.00  0.00    -0.491 OA
ATOM     23  C   UNL     1      -2.324  -1.025   0.000  0.00  0.00    +0.277 C 
ENDBRANCH  21  22
ENDBRANCH  14  15
BRANCH   4   5
ATOM      5  O   UNL     1     -14.015   1.226   0.000  0.00  0.00    -0.506 OA
ATOM      6  H   UNL     1     -14.826   1.694   0.000  0.00  0.00    +0.292 HD
ENDBRANCH   4   5
BRANCH   8   9
ATOM      9  O   UNL     1     -11.417   5.726   0.000  0.00  0.00    -0.507 OA
ATOM     10  H   UNL     1     -10.605   6.194   0.000  0.00  0.00    +0.292 HD
ENDBRANCH   8   9
TORSDOF 5