REMARK  Name = 338720
REMARK  5 active torsions:
REMARK  status: ('A' for Active; 'I' for Inactive)
REMARK    1  A    between atoms: C_3  and  C_6
REMARK    2  A    between atoms: C_9  and  O_10
REMARK    3  A    between atoms: O_10  and  C_15
REMARK    4  A    between atoms: C_11  and  O_13
REMARK    5  A    between atoms: O_13  and  C_16
REMARK                            x       y       z     vdW  Elec       q    Type
REMARK                         _______ _______ _______ _____ _____    ______ ____
ROOT
ATOM      3  C   UNL     1       4.922   1.025   0.000  0.00  0.00    +0.117 A 
ATOM      4  C   UNL     1       4.922  -0.475   0.000  0.00  0.00    +0.110 A 
ATOM      5  C   UNL     1       6.221  -1.226   0.000  0.00  0.00    +0.164 A 
ATOM      8  C   UNL     1       7.520  -0.475   0.000  0.00  0.00    +0.145 A 
ATOM      9 CL   UNL     1       8.819  -1.226   0.000  0.00  0.00    -0.074 Cl
ATOM     10  C   UNL     1       7.520   1.025   0.000  0.00  0.00    +0.237 A 
ATOM     13 CL   UNL     1       3.623  -1.226   0.000  0.00  0.00    -0.078 Cl
ATOM     14  N   UNL     1       6.221   1.775   0.000  0.00  0.00    -0.211 NA
ENDROOT
BRANCH   3   2
ATOM      1 CL   UNL     1       2.324   2.525   0.000  0.00  0.00    -0.077 Cl
ATOM      2  C   UNL     1       3.623   1.775   0.000  0.00  0.00    +0.234 C 
ATOM     15 CL   UNL     1       3.623   3.275   0.000  0.00  0.00    -0.077 Cl
ATOM     16 CL   UNL     1       2.324   1.025   0.000  0.00  0.00    -0.077 Cl
ENDBRANCH   3   2
BRANCH   5   6
ATOM      6  O   UNL     1       6.221  -2.725   0.000  0.00  0.00    -0.492 OA
ATOM      7  C   UNL     1       7.520  -3.475   0.000  0.00  0.00    +0.277 C 
ENDBRANCH   5   6
BRANCH  10  11
ATOM     11  O   UNL     1       8.819   1.775   0.000  0.00  0.00    -0.479 OA
ATOM     12  C   UNL     1      10.118   1.025   0.000  0.00  0.00    +0.279 C 
ENDBRANCH  10  11
TORSDOF 3