REMARK  Name = 157004
REMARK  6 active torsions:
REMARK  status: ('A' for Active; 'I' for Inactive)
REMARK    1  A    between atoms: N_2  and  C_23
REMARK    2  A    between atoms: C_12  and  C_25
REMARK    3  A    between atoms: C_16  and  C_24
REMARK    4  A    between atoms: O_19  and  C_20
REMARK    5  A    between atoms: O_19  and  C_24
REMARK    6  A    between atoms: C_20  and  C_22
REMARK                            x       y       z     vdW  Elec       q    Type
REMARK                         _______ _______ _______ _____ _____    ______ ____
ROOT
ATOM      1  O   UNL     1      -0.375   9.649   0.000  0.00  0.00    -0.268 OA
ATOM      2  C   UNL     1       0.924   8.899   0.000  0.00  0.00    +0.252 A 
ATOM      3  C   UNL     1       0.924   7.399   0.000  0.00  0.00    +0.078 A 
ATOM      4  C   UNL     1       2.223   6.649   0.000  0.00  0.00    +0.004 A 
ATOM     10  C   UNL     1       3.522   7.399   0.000  0.00  0.00    +0.009 A 
ATOM     11  C   UNL     1       4.821   6.649   0.000  0.00  0.00    +0.020 A 
ATOM     12  C   UNL     1       6.120   7.399   0.000  0.00  0.00    +0.006 A 
ATOM     13  C   UNL     1       7.419   6.649   0.000  0.00  0.00    -0.036 A 
ATOM     14  C   UNL     1       7.419   5.149   0.000  0.00  0.00    +0.044 C 
ATOM     15  C   UNL     1       8.718   7.399   0.000  0.00  0.00    +0.074 A 
ATOM     16  C   UNL     1       8.718   8.899   0.000  0.00  0.00    +0.255 A 
ATOM     17  O   UNL     1      10.017   9.649   0.000  0.00  0.00    -0.268 OA
ATOM     18  N   UNL     1       7.419   9.649   0.000  0.00  0.00    -0.271 N 
ATOM     19  C   UNL     1       6.709  11.098   0.000  0.00  0.00    +0.359 C 
ATOM     20  O   UNL     1       5.209  11.098   0.000  0.00  0.00    -0.467 OA
ATOM     21  C   UNL     1       4.821   9.649   0.000  0.00  0.00    +0.171 A 
ATOM     22  C   UNL     1       6.120   8.899   0.000  0.00  0.00    +0.099 A 
ATOM     23  C   UNL     1       3.522   8.899   0.000  0.00  0.00    +0.096 A 
ATOM     24  N   UNL     1       2.223   9.649   0.000  0.00  0.00    -0.308 N 
ATOM     25  C   UNL     1       2.223  11.150   0.000  0.00  0.00    +0.152 C 
ENDROOT
BRANCH   4   5
ATOM      5  C   UNL     1       2.223   5.149   0.000  0.00  0.00    +0.268 C 
BRANCH   5   6
ATOM      6  O   UNL     1       0.924   4.399   0.000  0.00  0.00    -0.460 OA
BRANCH   6   7
ATOM      7  C   UNL     1      -0.375   5.149   0.000  0.00  0.00    +0.304 C 
ATOM      8  C   UNL     1      -0.375   6.649   0.000  0.00  0.00    +0.136 C 
ATOM      9  O   UNL     1      -1.674   4.399   0.000  0.00  0.00    -0.251 OA
ENDBRANCH   6   7
ENDBRANCH   5   6
ENDBRANCH   4   5
TORSDOF 3