REMARK  Name = 138925
REMARK  16 active torsions:
REMARK  status: ('A' for Active; 'I' for Inactive)
REMARK    1  A    between atoms: O_1  and  C_2
REMARK    2  A    between atoms: O_1  and  C_3
REMARK    3  A    between atoms: C_4  and  O_8
REMARK    4  A    between atoms: C_5  and  O_10
REMARK    5  A    between atoms: C_7  and  O_13
REMARK    6  A    between atoms: O_8  and  C_15
REMARK    7  A    between atoms: C_9  and  N_16
REMARK    8  A    between atoms: C_11  and  N_18
REMARK    9  A    between atoms: C_12  and  C_19
REMARK   10  A    between atoms: C_14  and  O_20
REMARK   11  A    between atoms: C_19  and  O_23
REMARK   12  A    between atoms: C_22  and  N_25
REMARK   13  A    between atoms: C_24  and  C_27
REMARK   14  A    between atoms: C_26  and  O_29
REMARK   15  A    between atoms: C_27  and  N_30
REMARK   16  A    between atoms: C_28  and  O_31
REMARK                            x       y       z     vdW  Elec       q    Type
REMARK                         _______ _______ _______ _____ _____    ______ ____
ROOT
ATOM     14  C   UNL     1       5.471  10.025   0.000  0.00  0.00    +0.182 C 
ATOM     15  C   UNL     1       6.770   9.274   0.000  0.00  0.00    +0.163 C 
ATOM     16  C   UNL     1       6.770   7.774   0.000  0.00  0.00    +0.084 C 
ATOM     17  C   UNL     1       5.471   7.024   0.000  0.00  0.00    +0.042 C 
ATOM     18  C   UNL     1       4.172   7.774   0.000  0.00  0.00    +0.084 C 
ATOM     27  C   UNL     1       4.172   9.274   0.000  0.00  0.00    +0.169 C 
ENDROOT
BRANCH  18  19
ATOM     19  N   UNL     1       3.023   6.810   0.000  0.00  0.00    -0.325 NA
ATOM     20  H   UNL     1       1.613   7.323   0.000  0.00  0.00    +0.119 HD
ATOM     21  H   UNL     1       3.283   5.333   0.000  0.00  0.00    +0.119 HD
ENDBRANCH  18  19
BRANCH  16  22
ATOM     22  N   UNL     1       8.069   7.024   0.000  0.00  0.00    -0.325 NA
ATOM     23  H   UNL     1       9.368   7.774   0.000  0.00  0.00    +0.119 HD
ATOM     24  H   UNL     1       8.069   5.524   0.000  0.00  0.00    +0.119 HD
ENDBRANCH  16  22
BRANCH  15  25
ATOM     25  O   UNL     1       8.069  10.025   0.000  0.00  0.00    -0.388 OA
ATOM     26  H   UNL     1       9.368   9.274   0.000  0.00  0.00    +0.210 HD
ENDBRANCH  15  25
BRANCH  14   1
ATOM      1  O   UNL     1       5.471  11.525   0.000  0.00  0.00    -0.340 OA
BRANCH   1   2
ATOM      2  C   UNL     1       6.880  12.038   0.000  0.00  0.00    +0.282 C 
ATOM      3  C   UNL     1       7.294  13.479   0.000  0.00  0.00    +0.201 C 
ATOM      4  C   UNL     1       8.793  13.532   0.000  0.00  0.00    +0.179 C 
ATOM      5  C   UNL     1       9.306  12.122   0.000  0.00  0.00    +0.178 C 
ATOM     13  O   UNL     1       8.124  11.199   0.000  0.00  0.00    -0.341 OA
BRANCH   4   9
ATOM      9  O   UNL     1       9.632  14.775   0.000  0.00  0.00    -0.386 OA
ATOM     10  H   UNL     1      11.128  14.671   0.000  0.00  0.00    +0.210 HD
ENDBRANCH   4   9
BRANCH   3  11
ATOM     11  O   UNL     1       6.370  14.662   0.000  0.00  0.00    -0.384 OA
ATOM     12  H   UNL     1       6.932  16.052   0.000  0.00  0.00    +0.210 HD
ENDBRANCH   3  11
BRANCH   5   6
ATOM      6  C   UNL     1      10.748  11.709   0.000  0.00  0.00    +0.190 C 
BRANCH   6   7
ATOM      7  O   UNL     1      11.111  10.253   0.000  0.00  0.00    -0.392 OA
ATOM      8  H   UNL     1      12.553   9.840   0.000  0.00  0.00    +0.210 HD
ENDBRANCH   6   7
ENDBRANCH   5   6
ENDBRANCH   1   2
ENDBRANCH  14   1
BRANCH  27  28
ATOM     28  O   UNL     1       2.873  10.025   0.000  0.00  0.00    -0.342 OA
BRANCH  28  29
ATOM     29  C   UNL     1       1.463   9.511   0.000  0.00  0.00    +0.270 C 
ATOM     30  C   UNL     1       0.314  10.476   0.000  0.00  0.00    +0.139 C 
ATOM     31  C   UNL     1      -1.096   9.963   0.000  0.00  0.00    +0.167 C 
ATOM     32  C   UNL     1      -1.356   8.485   0.000  0.00  0.00    +0.175 C 
ATOM     35  C   UNL     1      -0.207   7.521   0.000  0.00  0.00    +0.166 C 
ATOM     45  O   UNL     1       1.203   8.034   0.000  0.00  0.00    -0.343 OA
BRANCH  30  42
ATOM     42  N   UNL     1       0.575  11.953   0.000  0.00  0.00    -0.321 NA
ATOM     43  H   UNL     1       1.984  12.466   0.000  0.00  0.00    +0.119 HD
ATOM     44  H   UNL     1      -0.575  12.917   0.000  0.00  0.00    +0.119 HD
ENDBRANCH  30  42
BRANCH  32  33
ATOM     33  O   UNL     1      -2.766   7.972   0.000  0.00  0.00    -0.387 OA
ATOM     34  H   UNL     1      -3.026   6.495   0.000  0.00  0.00    +0.210 HD
ENDBRANCH  32  33
BRANCH  31  40
ATOM     40  O   UNL     1      -2.245  10.927   0.000  0.00  0.00    -0.387 OA
ATOM     41  H   UNL     1      -3.654  10.414   0.000  0.00  0.00    +0.210 HD
ENDBRANCH  31  40
BRANCH  35  36
ATOM     36  C   UNL     1      -0.468   6.044   0.000  0.00  0.00    +0.112 C 
BRANCH  36  37
ATOM     37  N   UNL     1       0.682   5.080   0.000  0.00  0.00    -0.328 NA
ATOM     38  H   UNL     1       2.091   5.593   0.000  0.00  0.00    +0.118 HD
ATOM     39  H   UNL     1       0.421   3.603   0.000  0.00  0.00    +0.118 HD
ENDBRANCH  36  37
ENDBRANCH  35  36
ENDBRANCH  28  29
ENDBRANCH  27  28
TORSDOF 16