REMARK  Name = 10010
REMARK  18 active torsions:
REMARK  status: ('A' for Active; 'I' for Inactive)
REMARK    1  A    between atoms: C_7  and  O_21
REMARK    2  A    between atoms: C_8  and  N_36
REMARK    3  A    between atoms: C_9  and  C_37
REMARK    4  A    between atoms: C_12  and  N_35
REMARK    5  A    between atoms: C_16  and  O_23
REMARK    6  A    between atoms: C_17  and  C_38
REMARK    7  A    between atoms: O_21  and  C_22
REMARK    8  A    between atoms: O_23  and  C_24
REMARK    9  A    between atoms: C_26  and  C_27
REMARK   10  A    between atoms: C_26  and  N_36
REMARK   11  A    between atoms: C_27  and  C_28
REMARK   12  A    between atoms: C_28  and  C_29
REMARK   13  A    between atoms: C_29  and  C_30
REMARK   14  A    between atoms: C_30  and  C_31
REMARK   15  A    between atoms: C_31  and  C_32
REMARK   16  A    between atoms: C_32  and  C_33
REMARK   17  A    between atoms: C_33  and  C_34
REMARK   18  A    between atoms: C_34  and  N_35
REMARK                            x       y       z     vdW  Elec       q    Type
REMARK                         _______ _______ _______ _____ _____    ______ ____
ROOT
ATOM      1 CL   UNL     1       4.821 -14.150   0.000  0.00  0.00    -0.145 Cl
ATOM      2  H   UNL     1       6.151 -14.150   0.000  0.00  0.00    +0.145 HD
ENDROOT
TORSDOF 0