REMARK  Name = 157389
REMARK  13 active torsions:
REMARK  status: ('A' for Active; 'I' for Inactive)
REMARK    1  A    between atoms: C_3  and  C_11
REMARK    2  A    between atoms: C_4  and  C_15
REMARK    3  A    between atoms: C_9  and  N_28
REMARK    4  A    between atoms: N_18  and  C_19
REMARK    5  A    between atoms: N_18  and  C_21
REMARK    6  A    between atoms: N_18  and  C_23
REMARK    7  A    between atoms: C_19  and  C_20
REMARK    8  A    between atoms: C_21  and  C_22
REMARK    9  A    between atoms: C_23  and  C_24
REMARK   10  A    between atoms: C_24  and  C_25
REMARK   11  A    between atoms: C_25  and  C_26
REMARK   12  A    between atoms: C_26  and  C_27
REMARK   13  A    between atoms: C_26  and  N_28
REMARK                            x       y       z     vdW  Elec       q    Type
REMARK                         _______ _______ _______ _____ _____    ______ ____
ROOT
ATOM      1  N   UNL     1       1.775  11.417   0.000  0.00  0.00    -0.255 NA
ATOM      2  C   UNL     1       2.525  10.118   0.000  0.00  0.00    +0.066 A 
ATOM      3  C   UNL     1       1.775   8.819   0.000  0.00  0.00    +0.050 A 
ATOM      4  C   UNL     1       0.275   8.819   0.000  0.00  0.00    +0.031 A 
ATOM     17  C   UNL     1      -0.475  10.118   0.000  0.00  0.00    +0.042 A 
ATOM     27  C   UNL     1       0.275  11.417   0.000  0.00  0.00    +0.113 A 
ENDROOT
BRANCH   4   5
ATOM      5  N   UNL     1      -0.475   7.520   0.000  0.00  0.00    -0.341 N 
ATOM      6  H   UNL     1       0.017   6.667   0.000  0.00  0.00    +0.146 HD
BRANCH   5   7
ATOM      7  C   UNL     1      -1.976   7.520   0.000  0.00  0.00    +0.067 C 
ATOM      8  C   UNL     1      -2.725   8.819   0.000  0.00  0.00    +0.028 C 
BRANCH   7   9
ATOM      9  C   UNL     1      -2.725   6.221   0.000  0.00  0.00    +0.023 C 
BRANCH   9  10
ATOM     10  C   UNL     1      -1.976   4.922   0.000  0.00  0.00    +0.017 C 
BRANCH  10  11
ATOM     11  C   UNL     1      -0.475   4.922   0.000  0.00  0.00    +0.084 C 
BRANCH  11  12
ATOM     12  N   UNL     1       0.275   3.623   0.000  0.00  0.00    -0.303 NA
BRANCH  12  13
ATOM     13  C   UNL     1       1.775   3.623   0.000  0.00  0.00    +0.081 C 
ATOM     14  C   UNL     1       2.525   4.922   0.000  0.00  0.00    +0.020 C 
ENDBRANCH  12  13
BRANCH  12  15
ATOM     15  C   UNL     1      -0.475   2.324   0.000  0.00  0.00    +0.081 C 
ATOM     16  C   UNL     1       0.275   1.025   0.000  0.00  0.00    +0.020 C 
ENDBRANCH  12  15
ENDBRANCH  11  12
ENDBRANCH  10  11
ENDBRANCH   9  10
ENDBRANCH   7   9
ENDBRANCH   5   7
ENDBRANCH   4   5
BRANCH   2  18
ATOM     18  C   UNL     1       4.024  10.118   0.000  0.00  0.00    +0.028 C 
ATOM     19  C   UNL     1       4.774  11.417   0.000  0.00  0.00    +0.010 C 
BRANCH  19  20
ATOM     20  C   UNL     1       6.274  11.417   0.000  0.00  0.00    -0.025 A 
ATOM     21  C   UNL     1       7.024  10.118   0.000  0.00  0.00    +0.009 A 
ATOM     22  C   UNL     1       8.524  10.118   0.000  0.00  0.00    +0.020 A 
ATOM     23  C   UNL     1       9.274  11.417   0.000  0.00  0.00    +0.041 A 
ATOM     24  C   UNL     1       8.524  12.716   0.000  0.00  0.00    +0.020 A 
ATOM     25 CL   UNL     1      10.775  11.417   0.000  0.00  0.00    -0.084 Cl
ATOM     26  C   UNL     1       7.024  12.716   0.000  0.00  0.00    +0.009 A 
ENDBRANCH  19  20
ENDBRANCH   2  18
TORSDOF 10