REMARK  Name = 267213
REMARK  7 active torsions:
REMARK  status: ('A' for Active; 'I' for Inactive)
REMARK    1  A    between atoms: N_1  and  N_13
REMARK    2  A    between atoms: C_4  and  S_10
REMARK    3  A    between atoms: C_5  and  O_8
REMARK    4  A    between atoms: O_8  and  C_9
REMARK    5  A    between atoms: S_10  and  N_13
REMARK    6  A    between atoms: C_14  and  C_15
REMARK    7  A    between atoms: C_15  and  O_17
REMARK                            x       y       z     vdW  Elec       q    Type
REMARK                         _______ _______ _______ _____ _____    ______ ____
ROOT
ATOM      9  S   UNL     1       4.999   9.939   0.000  0.00  0.00    +0.086 S 
ATOM     10  O   UNL     1       3.499   9.939   0.000  0.00  0.00    -0.149 OA
ATOM     11  O   UNL     1       6.499   9.939   0.000  0.00  0.00    -0.149 OA
ENDROOT
BRANCH   9  12
ATOM     12  C   UNL     1       4.999  11.439   0.000  0.00  0.00    +0.110 A 
ATOM     13  C   UNL     1       3.700  12.189   0.000  0.00  0.00    +0.032 A 
ATOM     14  C   UNL     1       3.700  13.689   0.000  0.00  0.00    +0.047 A 
ATOM     15  C   UNL     1       4.999  14.439   0.000  0.00  0.00    +0.120 A 
ATOM     18  C   UNL     1       6.298  13.689   0.000  0.00  0.00    +0.047 A 
ATOM     19  C   UNL     1       6.298  12.189   0.000  0.00  0.00    +0.032 A 
BRANCH  15  16
ATOM     16  O   UNL     1       4.999  15.939   0.000  0.00  0.00    -0.495 OA
ATOM     17  C   UNL     1       6.298  16.689   0.000  0.00  0.00    +0.277 C 
ENDBRANCH  15  16
ENDBRANCH   9  12
BRANCH   9   7
ATOM      7  N   UNL     1       4.999   8.439   0.000  0.00  0.00    -0.137 N 
ATOM      8  H   UNL     1       4.193   7.874   0.000  0.00  0.00    +0.197 HD
BRANCH   7   1
ATOM      1  N   UNL     1       6.409   7.926   0.000  0.00  0.00    -0.167 NA
ATOM      2  C   UNL     1       7.558   8.890   0.000  0.00  0.00    +0.222 C 
BRANCH   2   3
ATOM      3  C   UNL     1       8.967   8.377   0.000  0.00  0.00    +0.349 C 
ATOM      6  O   UNL     1      10.116   9.341   0.000  0.00  0.00    -0.244 OA
BRANCH   3   4
ATOM      4  O   UNL     1       9.228   6.900   0.000  0.00  0.00    -0.476 OA
ATOM      5  H   UNL     1       8.510   6.297   0.000  0.00  0.00    +0.295 HD
ENDBRANCH   3   4
ENDBRANCH   2   3
ENDBRANCH   7   1
ENDBRANCH   9   7
TORSDOF 6