REMARK  Name = 175493
REMARK  4 active torsions:
REMARK  status: ('A' for Active; 'I' for Inactive)
REMARK    1  A    between atoms: C_1  and  FE_3
REMARK    2  A    between atoms: C_11  and  N_12
REMARK    3  A    between atoms: N_12  and  C_13
REMARK    4  A    between atoms: N_12  and  C_14
REMARK                            x       y       z     vdW  Elec       q    Type
REMARK                         _______ _______ _______ _____ _____    ______ ____
ROOT
ATOM      2 FE   UNL     1       6.391   0.263   0.000  0.00  0.00    +0.000 Fe
ATOM      3  S   UNL     1       4.379  -0.388   0.000  0.00  0.00    +0.000 S 
ATOM      4  H   UNL     1       4.045  -1.851   0.000  0.00  0.00    +0.000 HD
ATOM      5  C   UNL     1       3.443   0.784   0.000  0.00  0.00    +0.000 C 
ATOM      9  S   UNL     1       4.378   0.913   0.000  0.00  0.00    +0.000 S 
ATOM     10  C   UNL     1       8.027   0.263   0.000  0.00  0.00    +0.000 C 
ATOM     11  C   UNL     1       5.777  -1.036   0.000  0.00  0.00    +0.000 C 
ATOM     12  C   UNL     1       5.777   1.562   0.000  0.00  0.00    +0.000 C 
ATOM     13  C   UNL     1       7.277   1.562   0.000  0.00  0.00    +0.000 C 
ATOM     14  C   UNL     1       7.277  -1.036   0.000  0.00  0.00    +0.000 C 
ENDROOT
BRANCH   5   6
ATOM      6  N   UNL     1       2.050   1.341   0.000  0.00  0.00    +0.000 N 
ATOM      7  C   UNL     1       1.836   2.826   0.000  0.00  0.00    +0.000 C 
ATOM      8  C   UNL     1       0.872   0.413   0.000  0.00  0.00    +0.000 C 
ENDBRANCH   5   6
BRANCH   2   1
ATOM      1  C   UNL     1       2.554  -1.134   0.000  0.00  0.00    +0.000 C 
ATOM     15  O   UNL     1       1.144  -1.647   0.000  0.00  0.00    +0.000 OA
ENDBRANCH   2   1
TORSDOF 2