REMARK  Name = 38721
REMARK  3 active torsions:
REMARK  status: ('A' for Active; 'I' for Inactive)
REMARK    1  A    between atoms: C_4  and  C_18
REMARK    2  A    between atoms: C_10  and  C_18
REMARK    3  A    between atoms: C_15  and  C_18
REMARK                            x       y       z     vdW  Elec       q    Type
REMARK                         _______ _______ _______ _____ _____    ______ ____
ROOT
ATOM      8  C   UNL     1      -5.946  -3.000   0.000  0.00  0.00    +0.083 C 
ENDROOT
BRANCH   8   7
ATOM      1 CL   UNL     1      -5.946  -6.000   0.000  0.00  0.00    -0.083 Cl
ATOM      2  C   UNL     1      -7.245  -5.250   0.000  0.00  0.00    +0.045 A 
ATOM      3  C   UNL     1      -8.544  -6.000   0.000  0.00  0.00    +0.020 A 
ATOM      4  C   UNL     1      -9.843  -5.250   0.000  0.00  0.00    +0.001 A 
ATOM      5  C   UNL     1      -9.843  -3.750   0.000  0.00  0.00    +0.000 A 
ATOM      6  C   UNL     1      -8.544  -3.000   0.000  0.00  0.00    +0.006 A 
ATOM      7  C   UNL     1      -7.245  -3.750   0.000  0.00  0.00    -0.019 A 
ENDBRANCH   8   7
BRANCH   8  12
ATOM     12  C   UNL     1      -4.647  -3.750   0.000  0.00  0.00    -0.037 A 
ATOM     13  C   UNL     1      -4.647  -5.250   0.000  0.00  0.00    +0.006 A 
ATOM     14  C   UNL     1      -3.348  -6.000   0.000  0.00  0.00    +0.020 A 
ATOM     15  C   UNL     1      -2.049  -5.250   0.000  0.00  0.00    +0.041 A 
ATOM     16  C   UNL     1      -2.049  -3.750   0.000  0.00  0.00    +0.020 A 
ATOM     17 CL   UNL     1      -0.750  -6.000   0.000  0.00  0.00    -0.084 Cl
ATOM     18  C   UNL     1      -3.348  -3.000   0.000  0.00  0.00    +0.006 A 
ENDBRANCH   8  12
BRANCH   8   9
ATOM      9  C   UNL     1      -5.946  -1.500   0.000  0.00  0.00    +0.183 C 
ATOM     10 CL   UNL     1      -4.647  -0.750   0.000  0.00  0.00    -0.104 Cl
ATOM     11 CL   UNL     1      -7.245  -0.750   0.000  0.00  0.00    -0.104 Cl
ENDBRANCH   8   9
TORSDOF 3