REMARK  Name = 146604
REMARK  5 active torsions:
REMARK  status: ('A' for Active; 'I' for Inactive)
REMARK    1  A    between atoms: N_4  and  C1*_10
REMARK    2  A    between atoms: C2*_11  and  O2*_18
REMARK    3  A    between atoms: C3*_12  and  O3*_15
REMARK    4  A    between atoms: C4*_13  and  C5*_16
REMARK    5  A    between atoms: O5*_14  and  C5*_16
REMARK                            x       y       z     vdW  Elec       q    Type
REMARK                         _______ _______ _______ _____ _____    ______ ____
ROOT
ATOM     11  C1* UNL     1      -0.349  -0.527   0.000  0.00  0.00    +0.255 C 
ATOM     12  C2* UNL     1       0.371  -1.843   0.000  0.00  0.00    +0.195 C 
ATOM     15  C3* UNL     1      -0.658  -2.935   0.000  0.00  0.00    +0.178 C 
ATOM     18  C4* UNL     1      -2.014  -2.293   0.000  0.00  0.00    +0.177 C 
ATOM     22  O4* UNL     1      -1.823  -0.805   0.000  0.00  0.00    -0.346 OA
ENDROOT
BRANCH  11  10
ATOM      1  O   UNL     1      -2.056   1.940   0.000  0.00  0.00    -0.246 OA
ATOM      2  C   UNL     1      -0.561   2.062   0.000  0.00  0.00    +0.332 A 
ATOM      3  N   UNL     1       0.080   3.418   0.000  0.00  0.00    -0.273 N 
ATOM      4  H   UNL     1      -0.480   4.228   0.000  0.00  0.00    +0.174 HD
ATOM      5  C   UNL     1       1.575   3.541   0.000  0.00  0.00    +0.289 A 
ATOM      6  C   UNL     1       2.429   2.307   0.000  0.00  0.00    +0.204 A 
ATOM      7  C   UNL     1       1.788   0.951   0.000  0.00  0.00    +0.137 A 
ATOM      8  F   UNL     1       3.924   2.429   0.000  0.00  0.00    -0.198 F 
ATOM      9  O   UNL     1       2.217   4.896   0.000  0.00  0.00    -0.265 OA
ATOM     10  N   UNL     1       0.292   0.829   0.000  0.00  0.00    -0.269 N 
ENDBRANCH  11  10
BRANCH  12  13
ATOM     13  O2* UNL     1       1.859  -2.034   0.000  0.00  0.00    -0.385 OA
ATOM     14  H2* UNL     1       2.233  -2.929   0.000  0.00  0.00    +0.210 HD
ENDBRANCH  12  13
BRANCH  15  16
ATOM     16  O3* UNL     1      -0.380  -4.409   0.000  0.00  0.00    -0.386 OA
ATOM     17  H3* UNL     1      -1.116  -5.041   0.000  0.00  0.00    +0.210 HD
ENDBRANCH  15  16
BRANCH  18  19
ATOM     19  C5* UNL     1      -3.330  -3.013   0.000  0.00  0.00    +0.190 C 
BRANCH  19  20
ATOM     20  O5* UNL     1      -3.364  -4.513   0.000  0.00  0.00    -0.392 OA
ATOM     21  H5* UNL     1      -4.215  -4.978   0.000  0.00  0.00    +0.210 HD
ENDBRANCH  19  20
ENDBRANCH  18  19
TORSDOF 5