REMARK  Name = 140377
REMARK  12 active torsions:
REMARK  status: ('A' for Active; 'I' for Inactive)
REMARK    1  A    between atoms: C_1  and  C_18
REMARK    2  A    between atoms: C_1  and  C_20
REMARK    3  A    between atoms: C_2  and  C_19
REMARK    4  A    between atoms: C_2  and  C_22
REMARK    5  A    between atoms: O_3  and  C_4
REMARK    6  A    between atoms: O_3  and  C_25
REMARK    7  A    between atoms: C_4  and  C_24
REMARK    8  A    between atoms: C_7  and  C_25
REMARK    9  A    between atoms: C_8  and  O_26
REMARK   10  A    between atoms: C_9  and  O_27
REMARK   11  A    between atoms: C_21  and  C_23
REMARK   12  A    between atoms: C_23  and  C_25
REMARK                            x       y       z     vdW  Elec       q    Type
REMARK                         _______ _______ _______ _____ _____    ______ ____
ROOT
ATOM      5  C   UNL     1       6.273   6.245   0.000  0.00  0.00    +0.039 A 
ATOM      6  C   UNL     1       4.974   6.995   0.000  0.00  0.00    +0.135 A 
ATOM      9  C   UNL     1       4.974   8.495   0.000  0.00  0.00    +0.078 A 
ATOM     10  C   UNL     1       3.675   9.245   0.000  0.00  0.00    +0.190 C 
ATOM     11  C   UNL     1       3.675  10.745   0.000  0.00  0.00    +0.055 C 
ATOM     12  C   UNL     1       4.974  11.495   0.000  0.00  0.00    +0.055 C 
ATOM     13  C   UNL     1       6.273  10.745   0.000  0.00  0.00    +0.190 C 
ATOM     14  O   UNL     1       7.572  11.495   0.000  0.00  0.00    -0.287 OA
ATOM     15  O   UNL     1       2.376   8.495   0.000  0.00  0.00    -0.287 OA
ATOM     16  C   UNL     1       6.273   9.245   0.000  0.00  0.00    +0.077 A 
ATOM     17  C   UNL     1       7.572   8.495   0.000  0.00  0.00    +0.129 A 
ATOM     20  C   UNL     1       7.572   6.995   0.000  0.00  0.00    +0.057 A 
ENDROOT
BRANCH   6   7
ATOM      7  O   UNL     1       3.675   6.245   0.000  0.00  0.00    -0.506 OA
ATOM      8  H   UNL     1       2.863   6.713   0.000  0.00  0.00    +0.292 HD
ENDBRANCH   6   7
BRANCH  17  18
ATOM     18  O   UNL     1       8.871   9.245   0.000  0.00  0.00    -0.506 OA
ATOM     19  H   UNL     1       9.682   8.776   0.000  0.00  0.00    +0.292 HD
ENDBRANCH  17  18
BRANCH   5   4
ATOM      4  C   UNL     1       6.273   4.745   0.000  0.00  0.00    +0.214 C 
BRANCH   4   3
ATOM      3  C   UNL     1       4.974   3.994   0.000  0.00  0.00    +0.076 C 
BRANCH   3   2
ATOM      1  C   UNL     1       3.675   1.744   0.000  0.00  0.00    -0.079 C 
ATOM      2  C   UNL     1       4.974   2.494   0.000  0.00  0.00    -0.024 C 
ATOM     28  C   UNL     1       2.376   2.494   0.000  0.00  0.00    +0.038 C 
ATOM     29  C   UNL     1       3.675   0.245   0.000  0.00  0.00    +0.038 C 
ENDBRANCH   3   2
ENDBRANCH   4   3
BRANCH   4  21
ATOM     21  O   UNL     1       7.572   3.994   0.000  0.00  0.00    -0.453 OA
BRANCH  21  22
ATOM     22  C   UNL     1       8.871   4.745   0.000  0.00  0.00    +0.332 C 
ATOM     27  O   UNL     1       8.871   6.245   0.000  0.00  0.00    -0.246 OA
BRANCH  22  23
ATOM     23  C   UNL     1      10.170   3.994   0.000  0.00  0.00    +0.090 C 
ATOM     24  C   UNL     1      11.469   4.745   0.000  0.00  0.00    -0.069 C 
ATOM     25  C   UNL     1      11.469   6.245   0.000  0.00  0.00    +0.039 C 
ATOM     26  C   UNL     1      12.768   3.994   0.000  0.00  0.00    +0.039 C 
ENDBRANCH  22  23
ENDBRANCH  21  22
ENDBRANCH   4  21
ENDBRANCH   5   4
TORSDOF 8