REMARK  Name = 37364
REMARK  2 active torsions:
REMARK  status: ('A' for Active; 'I' for Inactive)
REMARK    1  A    between atoms: C_6  and  O_12
REMARK    2  A    between atoms: O_12  and  C_13
REMARK                            x       y       z     vdW  Elec       q    Type
REMARK                         _______ _______ _______ _____ _____    ______ ____
ROOT
ATOM      1  N   UNL     1       2.506   3.000   0.000  0.00  0.00    -0.178 NA
ATOM      2  C   UNL     1       2.506   1.500   0.000  0.00  0.00    +0.218 A 
ATOM      3  N   UNL     1       1.207   0.750   0.000  0.00  0.00    -0.327 N 
ATOM      4  H   UNL     1       1.207  -0.234   0.000  0.00  0.00    +0.145 HD
ATOM      5  H   UNL     1       0.355   1.242   0.000  0.00  0.00    +0.145 HD
ATOM      6  N   UNL     1       3.805   0.750   0.000  0.00  0.00    -0.193 NA
ATOM      7  C   UNL     1       5.104   1.500   0.000  0.00  0.00    +0.186 A 
ATOM      8  C   UNL     1       5.104   3.000   0.000  0.00  0.00    +0.147 A 
ATOM      9  N   UNL     1       6.531   3.463   0.000  0.00  0.00    -0.339 N 
ATOM     10  H   UNL     1       6.994   4.890   0.000  0.00  0.00    +0.167 HD
ATOM     11  C   UNL     1       7.413   2.250   0.000  0.00  0.00    +0.199 A 
ATOM     12  N   UNL     1       6.531   1.037   0.000  0.00  0.00    -0.216 NA
ATOM     13  C   UNL     1       3.805   3.750   0.000  0.00  0.00    +0.245 A 
ENDROOT
BRANCH  13  14
ATOM     14  O   UNL     1       3.805   5.250   0.000  0.00  0.00    -0.478 OA
ATOM     15  C   UNL     1       2.506   6.000   0.000  0.00  0.00    +0.279 C 
ENDBRANCH  13  14
TORSDOF 1