REMARK  Name = 324368
REMARK  32 active torsions:
REMARK  status: ('A' for Active; 'I' for Inactive)
REMARK    1  A    between atoms: O_1  and  C_9
REMARK    2  A    between atoms: O_1  and  C_27
REMARK    3  A    between atoms: O_2  and  C_28
REMARK    4  A    between atoms: O_2  and  C_29
REMARK    5  A    between atoms: O_3  and  P_6
REMARK    6  A    between atoms: O_3  and  C_30
REMARK    7  A    between atoms: P_6  and  O_7
REMARK    8  A    between atoms: O_7  and  C_31
REMARK    9  A    between atoms: N_8  and  C_32
REMARK   10  A    between atoms: N_8  and  C_33
REMARK   11  A    between atoms: N_8  and  C_34
REMARK   12  A    between atoms: N_8  and  C_35
REMARK   13  A    between atoms: C_9  and  C_10
REMARK   14  A    between atoms: C_10  and  C_11
REMARK   15  A    between atoms: C_11  and  C_12
REMARK   16  A    between atoms: C_12  and  C_13
REMARK   17  A    between atoms: C_13  and  C_14
REMARK   18  A    between atoms: C_14  and  C_15
REMARK   19  A    between atoms: C_15  and  C_16
REMARK   20  A    between atoms: C_16  and  C_17
REMARK   21  A    between atoms: C_17  and  C_18
REMARK   22  A    between atoms: C_18  and  C_19
REMARK   23  A    between atoms: C_19  and  C_20
REMARK   24  A    between atoms: C_20  and  C_21
REMARK   25  A    between atoms: C_21  and  C_22
REMARK   26  A    between atoms: C_22  and  C_23
REMARK   27  A    between atoms: C_23  and  C_24
REMARK   28  A    between atoms: C_24  and  C_25
REMARK   29  A    between atoms: C_25  and  C_26
REMARK   30  A    between atoms: C_27  and  C_28
REMARK   31  A    between atoms: C_28  and  C_30
REMARK   32  A    between atoms: C_31  and  C_32
REMARK                            x       y       z     vdW  Elec       q    Type
REMARK                         _______ _______ _______ _____ _____    ______ ____
ROOT
ATOM     18  C   UNL     1      -8.039   2.038   0.000  0.00  0.00    +0.160 C 
ENDROOT
BRANCH  18   1
ATOM      1  O   UNL     1      -6.562   2.299   0.000  0.00  0.00    -0.377 OA
BRANCH   1   2
ATOM      2  C   UNL     1      -5.812   1.000   0.000  0.00  0.00    +0.193 C 
BRANCH   2   3
ATOM      3  C   UNL     1      -4.312   1.000   0.000  0.00  0.00    +0.169 C 
BRANCH   3  16
ATOM     16  O   UNL     1      -3.562  -0.299   0.000  0.00  0.00    -0.375 OA
ATOM     17  C   UNL     1      -2.062  -0.299   0.000  0.00  0.00    +0.194 C 
ENDBRANCH   3  16
BRANCH   3   4
ATOM      4  C   UNL     1      -3.562   2.299   0.000  0.00  0.00    +0.201 C 
BRANCH   4   5
ATOM      5  O   UNL     1      -4.526   3.448   0.000  0.00  0.00    -0.325 OA
BRANCH   5   6
ATOM      6  P   UNL     1      -3.776   4.747   0.000  0.00  0.00    +0.213 P 
ATOM     14  O   UNL     1      -2.477   3.997   0.000  0.00  0.00    -0.437 OA
ATOM     15  O   UNL     1      -5.075   5.497   0.000  0.00  0.00    -0.517 OA
BRANCH   6   7
ATOM      7  O   UNL     1      -3.026   6.046   0.000  0.00  0.00    -0.322 OA
BRANCH   7   8
ATOM      8  C   UNL     1      -3.990   7.195   0.000  0.00  0.00    +0.218 C 
BRANCH   8   9
ATOM      9  C   UNL     1      -3.477   8.604   0.000  0.00  0.00    +0.161 C 
BRANCH   9  10
ATOM     10  N   UNL     1      -2.000   8.865   0.000  0.00  0.00    +0.239 N 
ATOM     11  C   UNL     1      -0.523   9.125   0.000  0.00  0.00    +0.192 C 
ATOM     12  C   UNL     1      -2.260  10.342   0.000  0.00  0.00    +0.192 C 
ATOM     13  C   UNL     1      -1.739   7.388   0.000  0.00  0.00    +0.192 C 
ENDBRANCH   9  10
ENDBRANCH   8   9
ENDBRANCH   7   8
ENDBRANCH   6   7
ENDBRANCH   5   6
ENDBRANCH   4   5
ENDBRANCH   3   4
ENDBRANCH   2   3
ENDBRANCH   1   2
ENDBRANCH  18   1
BRANCH  18  19
ATOM     19  C   UNL     1      -8.789   3.337   0.000  0.00  0.00    +0.028 C 
BRANCH  19  20
ATOM     20  C   UNL     1     -10.289   3.337   0.000  0.00  0.00    +0.002 C 
BRANCH  20  21
ATOM     21  C   UNL     1     -11.039   4.636   0.000  0.00  0.00    +0.000 C 
BRANCH  21  22
ATOM     22  C   UNL     1     -12.539   4.636   0.000  0.00  0.00    +0.000 C 
BRANCH  22  23
ATOM     23  C   UNL     1     -13.289   5.935   0.000  0.00  0.00    +0.000 C 
BRANCH  23  24
ATOM     24  C   UNL     1     -14.789   5.935   0.000  0.00  0.00    -0.000 C 
BRANCH  24  25
ATOM     25  C   UNL     1     -15.539   7.234   0.000  0.00  0.00    -0.000 C 
BRANCH  25  26
ATOM     26  C   UNL     1     -17.039   7.234   0.000  0.00  0.00    -0.000 C 
BRANCH  26  27
ATOM     27  C   UNL     1     -17.789   8.533   0.000  0.00  0.00    -0.000 C 
BRANCH  27  28
ATOM     28  C   UNL     1     -19.289   8.533   0.000  0.00  0.00    -0.000 C 
BRANCH  28  29
ATOM     29  C   UNL     1     -20.039   7.234   0.000  0.00  0.00    -0.000 C 
BRANCH  29  30
ATOM     30  C   UNL     1     -21.539   7.234   0.000  0.00  0.00    -0.000 C 
BRANCH  30  31
ATOM     31  C   UNL     1     -22.289   8.533   0.000  0.00  0.00    -0.000 C 
BRANCH  31  32
ATOM     32  C   UNL     1     -23.789   8.533   0.000  0.00  0.00    -0.000 C 
BRANCH  32  33
ATOM     33  C   UNL     1     -24.539   7.234   0.000  0.00  0.00    -0.000 C 
BRANCH  33  34
ATOM     34  C   UNL     1     -26.039   7.234   0.000  0.00  0.00    -0.003 C 
ATOM     35  C   UNL     1     -26.789   8.533   0.000  0.00  0.00    +0.004 C 
ENDBRANCH  33  34
ENDBRANCH  32  33
ENDBRANCH  31  32
ENDBRANCH  30  31
ENDBRANCH  29  30
ENDBRANCH  28  29
ENDBRANCH  27  28
ENDBRANCH  26  27
ENDBRANCH  25  26
ENDBRANCH  24  25
ENDBRANCH  23  24
ENDBRANCH  22  23
ENDBRANCH  21  22
ENDBRANCH  20  21
ENDBRANCH  19  20
ENDBRANCH  18  19
TORSDOF 27