REMARK  Name = 47438
REMARK  9 active torsions:
REMARK  status: ('A' for Active; 'I' for Inactive)
REMARK    1  A    between atoms: C_5  and  C_26
REMARK    2  A    between atoms: C_5  and  O_29
REMARK    3  A    between atoms: C_7  and  C_25
REMARK    4  A    between atoms: C_9  and  O_22
REMARK    5  A    between atoms: C_14  and  C_23
REMARK    6  A    between atoms: C_20  and  C_24
REMARK    7  A    between atoms: C_26  and  C_28
REMARK    8  A    between atoms: O_29  and  C_30
REMARK    9  A    between atoms: C_30  and  C_32
REMARK                            x       y       z     vdW  Elec       q    Type
REMARK                         _______ _______ _______ _____ _____    ______ ____
ROOT
ATOM      1  O   UNL     1      -3.940   2.575   0.000  0.00  0.00    -0.288 OA
ATOM      2  C   UNL     1      -3.330   3.946   0.000  0.00  0.00    +0.179 C 
ATOM      3  C   UNL     1      -1.838   4.102   0.000  0.00  0.00    +0.051 C 
ATOM      4  C   UNL     1      -1.228   5.473   0.000  0.00  0.00    -0.050 C 
ATOM      5  C   UNL     1       0.264   5.630   0.000  0.00  0.00    +0.013 C 
ATOM      6  C   UNL     1       1.145   4.416   0.000  0.00  0.00    +0.012 C 
ATOM      7  C   UNL     1       0.874   7.000   0.000  0.00  0.00    +0.014 C 
ATOM      8  C   UNL     1      -0.008   8.213   0.000  0.00  0.00    +0.034 C 
ATOM      9  C   UNL     1      -1.500   8.057   0.000  0.00  0.00    +0.153 C 
ATOM     10  C   UNL     1      -2.382   9.270   0.000  0.00  0.00    +0.154 C 
ATOM     13  C   UNL     1      -1.771  10.640   0.000  0.00  0.00    +0.045 C 
ATOM     14  C   UNL     1      -0.280  10.797   0.000  0.00  0.00    +0.020 C 
ATOM     15  C   UNL     1      -1.030  12.096   0.000  0.00  0.00    +0.016 C 
ATOM     16  C   UNL     1       0.602  12.011   0.000  0.00  0.00    +0.176 C 
ATOM     24  C   UNL     1       2.029  11.547   0.000  0.00  0.00    +0.057 C 
ATOM     25  C   UNL     1       2.029  10.047   0.000  0.00  0.00    +0.009 C 
ATOM     26  F   UNL     1      -0.618   6.843   0.000  0.00  0.00    -0.238 F 
ATOM     27  C   UNL     1       0.602   9.584   0.000  0.00  0.00    +0.006 C 
ATOM     28  C   UNL     1      -2.110   6.686   0.000  0.00  0.00    +0.045 C 
ATOM     29  C   UNL     1      -2.992   7.900   0.000  0.00  0.00    +0.023 C 
ATOM     30  C   UNL     1      -3.602   6.529   0.000  0.00  0.00    -0.009 C 
ATOM     31  C   UNL     1      -4.212   5.159   0.000  0.00  0.00    +0.047 C 
ENDROOT
BRANCH  16  21
ATOM     21  C   UNL     1      -0.362  13.160   0.000  0.00  0.00    +0.174 C 
ATOM     22  C   UNL     1       0.151  14.569   0.000  0.00  0.00    +0.090 C 
ATOM     23  O   UNL     1      -1.839  12.899   0.000  0.00  0.00    -0.293 OA
ENDBRANCH  16  21
BRANCH  10  11
ATOM     11  O   UNL     1      -3.873   9.113   0.000  0.00  0.00    -0.389 OA
ATOM     12  H   UNL     1      -4.443   9.898   0.000  0.00  0.00    +0.210 HD
ENDBRANCH  10  11
BRANCH  16  17
ATOM     17  O   UNL     1       1.441  13.254   0.000  0.00  0.00    -0.450 OA
BRANCH  17  18
ATOM     18  C   UNL     1       2.937  13.150   0.000  0.00  0.00    +0.305 C 
ATOM     19  C   UNL     1       3.595  11.802   0.000  0.00  0.00    +0.136 C 
ATOM     20  O   UNL     1       3.776  14.393   0.000  0.00  0.00    -0.251 OA
ENDBRANCH  17  18
ENDBRANCH  16  17
TORSDOF 4