REMARK  Name = 175296
REMARK  8 active torsions:
REMARK  status: ('A' for Active; 'I' for Inactive)
REMARK    1  A    between atoms: O_1  and  C_10
REMARK    2  A    between atoms: O_1  and  C_16
REMARK    3  A    between atoms: C_4  and  C_19
REMARK    4  A    between atoms: C_5  and  O_20
REMARK    5  A    between atoms: C_9  and  O_14
REMARK    6  A    between atoms: C_13  and  O_15
REMARK    7  A    between atoms: C_16  and  C_18
REMARK    8  A    between atoms: O_20  and  C_21
REMARK                            x       y       z     vdW  Elec       q    Type
REMARK                         _______ _______ _______ _____ _____    ______ ____
ROOT
ATOM      2  C   UNL     1      -0.549  -6.750   0.000  0.00  0.00    +0.337 C 
ATOM     13  O   UNL     1      -0.549  -5.250   0.000  0.00  0.00    -0.245 OA
ENDROOT
BRANCH   2   3
ATOM      3  C   UNL     1       0.750  -7.500   0.000  0.00  0.00    +0.092 C 
ATOM      4  C   UNL     1       0.750  -9.000   0.000  0.00  0.00    +0.015 C 
BRANCH   4   5
ATOM      5  C   UNL     1       2.049  -9.750   0.000  0.00  0.00    -0.025 A 
ATOM      6  C   UNL     1       2.049 -11.250   0.000  0.00  0.00    +0.011 A 
ATOM      7  C   UNL     1       3.348 -12.000   0.000  0.00  0.00    +0.046 A 
ATOM      8  C   UNL     1       4.647 -11.250   0.000  0.00  0.00    +0.120 A 
ATOM     11  C   UNL     1       4.647  -9.750   0.000  0.00  0.00    +0.046 A 
ATOM     12  C   UNL     1       3.348  -9.000   0.000  0.00  0.00    +0.011 A 
BRANCH   8   9
ATOM      9  O   UNL     1       5.946 -12.000   0.000  0.00  0.00    -0.495 OA
ATOM     10  C   UNL     1       7.245 -11.250   0.000  0.00  0.00    +0.277 C 
ENDBRANCH   8   9
ENDBRANCH   4   5
ENDBRANCH   2   3
BRANCH   2   1
ATOM      1  O   UNL     1      -1.848  -7.500   0.000  0.00  0.00    -0.423 OA
BRANCH   1  14
ATOM     14  C   UNL     1      -3.147  -6.750   0.000  0.00  0.00    +0.139 A 
ATOM     15  C   UNL     1      -4.446  -7.500   0.000  0.00  0.00    +0.092 A 
ATOM     16  C   UNL     1      -5.745  -6.750   0.000  0.00  0.00    +0.124 A 
ATOM     19  C   UNL     1      -5.745  -5.250   0.000  0.00  0.00    +0.091 A 
ATOM     20  C   UNL     1      -4.446  -4.500   0.000  0.00  0.00    +0.124 A 
ATOM     23  C   UNL     1      -3.147  -5.250   0.000  0.00  0.00    +0.092 A 
BRANCH  16  17
ATOM     17  O   UNL     1      -7.044  -7.500   0.000  0.00  0.00    -0.507 OA
ATOM     18  H   UNL     1      -7.856  -7.032   0.000  0.00  0.00    +0.292 HD
ENDBRANCH  16  17
BRANCH  20  21
ATOM     21  O   UNL     1      -4.446  -3.000   0.000  0.00  0.00    -0.507 OA
ATOM     22  H   UNL     1      -3.635  -2.531   0.000  0.00  0.00    +0.292 HD
ENDBRANCH  20  21
ENDBRANCH   1  14
ENDBRANCH   2   1
TORSDOF 7