REMARK  Name = 328166
REMARK  5 active torsions:
REMARK  status: ('A' for Active; 'I' for Inactive)
REMARK    1  A    between atoms: C_1  and  C_2
REMARK    2  A    between atoms: C_16  and  O_21
REMARK    3  A    between atoms: C_19  and  C_25
REMARK    4  A    between atoms: C_27  and  O_29
REMARK    5  A    between atoms: C_30  and  C_32
REMARK                            x       y       z     vdW  Elec       q    Type
REMARK                         _______ _______ _______ _____ _____    ______ ____
ROOT
ATOM      1  C   UNL     1       2.635  -0.158   0.000  0.00  0.00    +0.019 C 
ATOM      2  C   UNL     1       1.992  -0.924   0.000  0.00  0.00    +0.050 C 
ATOM      3  C   UNL     1       1.992   0.076   0.000  0.00  0.00    +0.189 C 
ATOM      4  O   UNL     1       1.126   0.576   0.000  0.00  0.00    -0.458 OA
ATOM      5  C   UNL     1       1.126   1.576   0.000  0.00  0.00    +0.332 C 
ATOM      6  C   UNL     1       0.260   2.076   0.000  0.00  0.00    +0.091 C 
ATOM      7  C   UNL     1       0.260   3.076   0.000  0.00  0.00    +0.007 C 
ATOM      8  C   UNL     1      -0.606   3.576   0.000  0.00  0.00    +0.007 C 
ATOM      9  C   UNL     1      -1.472   3.076   0.000  0.00  0.00    +0.091 C 
ATOM     10  C   UNL     1      -2.338   3.576   0.000  0.00  0.00    +0.332 C 
ATOM     11  O   UNL     1      -3.204   3.076   0.000  0.00  0.00    -0.462 OA
ATOM     12  C   UNL     1      -3.204   2.076   0.000  0.00  0.00    +0.233 C 
ATOM     13  C   UNL     1      -2.338   1.576   0.000  0.00  0.00    +0.047 C 
ATOM     14  C   UNL     1      -2.338   0.576   0.000  0.00  0.00    +0.029 C 
ATOM     15  C   UNL     1      -3.204   0.076   0.000  0.00  0.00    +0.011 C 
ATOM     16  C   UNL     1      -1.472   0.076   0.000  0.00  0.00    +0.225 C 
ATOM     19  C   UNL     1      -1.472  -0.924   0.000  0.00  0.00    +0.336 C 
ATOM     20  O   UNL     1      -2.338  -1.424   0.000  0.00  0.00    -0.248 OA
ATOM     21  O   UNL     1      -0.606  -1.424   0.000  0.00  0.00    -0.462 OA
ATOM     22  C   UNL     1       0.260  -0.924   0.000  0.00  0.00    +0.242 C 
ATOM     23  O   UNL     1      -2.338   4.576   0.000  0.00  0.00    -0.246 OA
ATOM     24  O   UNL     1       1.992   2.076   0.000  0.00  0.00    -0.246 OA
ATOM     25  C   UNL     1       2.429  -1.206   0.000  0.00  0.00    +0.080 C 
ATOM     26  C   UNL     1       2.910  -2.473   0.000  0.00  0.00    +0.157 C 
ATOM     27  O   UNL     1       2.008  -2.993   0.000  0.00  0.00    -0.367 OA
ATOM     28  C   UNL     1       1.126  -2.424   0.000  0.00  0.00    +0.161 C 
ATOM     29  C   UNL     1       0.260  -2.924   0.000  0.00  0.00    +0.183 C 
ATOM     30  O   UNL     1      -0.607  -3.425   0.000  0.00  0.00    -0.360 OA
ATOM     31  C   UNL     1      -0.606  -2.424   0.000  0.00  0.00    +0.121 C 
ATOM     32  C   UNL     1      -0.606  -1.424   0.000  0.00  0.00    +0.149 C 
ATOM     35  C   UNL     1       0.260  -0.924   0.000  0.00  0.00    +0.048 C 
ATOM     36  C   UNL     1      -1.472  -1.924   0.000  0.00  0.00    +0.047 C 
ATOM     37  C   UNL     1       2.902  -1.431   0.000  0.00  0.00    +0.128 C 
ATOM     38  O   UNL     1       3.902  -1.419   0.000  0.00  0.00    -0.365 OA
ATOM     39  C   UNL     1       3.392  -0.559   0.000  0.00  0.00    +0.199 C 
ATOM     40  C   UNL     1       1.126  -1.424   0.000  0.00  0.00    +0.048 C 
ENDROOT
BRANCH  16  17
ATOM     17  O   UNL     1      -0.830   0.842   0.000  0.00  0.00    -0.380 OA
ATOM     18  H   UNL     1      -0.219   0.734   0.000  0.00  0.00    +0.211 HD
ENDBRANCH  16  17
BRANCH  32  33
ATOM     33  O   UNL     1      -0.606  -0.424   0.000  0.00  0.00    -0.389 OA
ATOM     34  H   UNL     1      -0.069  -0.114   0.000  0.00  0.00    +0.210 HD
ENDBRANCH  32  33
TORSDOF 2