REMARK  Name = 294961
REMARK  2 active torsions:
REMARK  status: ('A' for Active; 'I' for Inactive)
REMARK    1  A    between atoms: C_9  and  C_16
REMARK    2  A    between atoms: C_10  and  C_16
REMARK                            x       y       z     vdW  Elec       q    Type
REMARK                         _______ _______ _______ _____ _____    ______ ____
ROOT
ATOM      7  C   UNL     1       1.419  -7.927   0.000  0.00  0.00    +0.065 C 
ATOM      8  C   UNL     1       0.955  -9.353   0.000  0.00  0.00    +0.050 C 
ATOM      9  C   UNL     1       1.837 -10.567   0.000  0.00  0.00    +0.249 C 
ATOM     10  O   UNL     1       3.337 -10.567   0.000  0.00  0.00    -0.270 OA
ATOM     11  N   UNL     1       0.955 -11.780   0.000  0.00  0.00    -0.281 N 
ATOM     12  H   UNL     1       1.419 -13.207   0.000  0.00  0.00    +0.155 HD
ATOM     13  C   UNL     1      -0.471 -11.317   0.000  0.00  0.00    +0.042 A 
ATOM     14  C   UNL     1      -1.771 -12.067   0.000  0.00  0.00    +0.025 A 
ATOM     15  C   UNL     1      -3.070 -11.317   0.000  0.00  0.00    +0.017 A 
ATOM     16  C   UNL     1      -3.070  -9.817   0.000  0.00  0.00    +0.019 A 
ATOM     17 BR   UNL     1      -4.369  -9.067   0.000  0.00  0.00    -0.050 Br
ATOM     18  C   UNL     1      -1.771  -9.067   0.000  0.00  0.00    +0.025 A 
ATOM     19  C   UNL     1      -0.471  -9.817   0.000  0.00  0.00    +0.009 A 
ENDROOT
BRANCH   7   5
ATOM      5  C   UNL     1       2.886  -7.615   0.000  0.00  0.00    +0.187 C 
ATOM      6  O   UNL     1       3.890  -8.729   0.000  0.00  0.00    -0.287 OA
BRANCH   5   4
ATOM      1  C   UNL     1       4.276  -3.335   0.000  0.00  0.00    +0.000 A 
ATOM      2  C   UNL     1       5.280  -4.450   0.000  0.00  0.00    +0.001 A 
ATOM      3  C   UNL     1       4.817  -5.876   0.000  0.00  0.00    +0.012 A 
ATOM      4  C   UNL     1       3.349  -6.188   0.000  0.00  0.00    +0.022 A 
ATOM     20  C   UNL     1       2.346  -5.073   0.000  0.00  0.00    +0.012 A 
ATOM     21  C   UNL     1       2.809  -3.647   0.000  0.00  0.00    +0.001 A 
ENDBRANCH   5   4
ENDBRANCH   7   5
TORSDOF 2