REMARK  Name = 403148
REMARK  7 active torsions:
REMARK  status: ('A' for Active; 'I' for Inactive)
REMARK    1  A    between atoms: C_16  and  C_20
REMARK    2  A    between atoms: C_23  and  O_30
REMARK    3  A    between atoms: C_24  and  O_26
REMARK    4  A    between atoms: C_25  and  O_28
REMARK    5  A    between atoms: O_26  and  C_27
REMARK    6  A    between atoms: O_28  and  C_29
REMARK    7  A    between atoms: O_30  and  C_31
REMARK                            x       y       z     vdW  Elec       q    Type
REMARK                         _______ _______ _______ _____ _____    ______ ____
ROOT
ATOM      1  O   UNL     1      -4.811   0.964   0.000  0.00  0.00    -0.453 OA
ATOM      2  C   UNL     1      -5.696   2.175   0.000  0.00  0.00    +0.466 C 
ATOM      3  O   UNL     1      -4.817   3.391   0.000  0.00  0.00    -0.453 OA
ATOM      4  C   UNL     1      -3.389   2.931   0.000  0.00  0.00    +0.167 A 
ATOM      5  C   UNL     1      -2.092   3.684   0.000  0.00  0.00    +0.053 A 
ATOM      6  C   UNL     1      -0.791   2.938   0.000  0.00  0.00    -0.040 A 
ATOM      7  C   UNL     1      -0.787   1.438   0.000  0.00  0.00    -0.032 A 
ATOM      8  C   UNL     1       0.514   0.691   0.000  0.00  0.00    +0.064 C 
ATOM     21  C   UNL     1       1.811   1.445   0.000  0.00  0.00    +0.116 C 
ATOM     22  C   UNL     1       3.239   0.985   0.000  0.00  0.00    +0.312 C 
ATOM     23  O   UNL     1       3.706  -0.440   0.000  0.00  0.00    -0.250 OA
ATOM     24  O   UNL     1       4.117   2.201   0.000  0.00  0.00    -0.464 OA
ATOM     25  C   UNL     1       3.232   3.412   0.000  0.00  0.00    +0.236 C 
ATOM     26  C   UNL     1       1.807   2.945   0.000  0.00  0.00    +0.046 C 
ATOM     27  C   UNL     1      -2.084   0.685   0.000  0.00  0.00    +0.054 A 
ATOM     28  C   UNL     1       0.506   3.691   0.000  0.00  0.00    +0.043 C 
ATOM     29  C   UNL     1      -3.385   1.431   0.000  0.00  0.00    +0.167 A 
ENDROOT
BRANCH   8   9
ATOM      9  C   UNL     1       0.518  -0.809   0.000  0.00  0.00    -0.032 A 
ATOM     10  C   UNL     1       1.819  -1.555   0.000  0.00  0.00    +0.054 A 
ATOM     11  C   UNL     1       1.823  -3.055   0.000  0.00  0.00    +0.165 A 
ATOM     14  C   UNL     1       0.526  -3.809   0.000  0.00  0.00    +0.204 A 
ATOM     17  C   UNL     1      -0.775  -3.062   0.000  0.00  0.00    +0.165 A 
ATOM     20  C   UNL     1      -0.779  -1.562   0.000  0.00  0.00    +0.054 A 
BRANCH  11  12
ATOM     12  O   UNL     1       3.124  -3.802   0.000  0.00  0.00    -0.491 OA
ATOM     13  C   UNL     1       4.421  -3.048   0.000  0.00  0.00    +0.277 C 
ENDBRANCH  11  12
BRANCH  14  15
ATOM     15  O   UNL     1       0.530  -5.309   0.000  0.00  0.00    -0.488 OA
ATOM     16  C   UNL     1      -0.767  -6.062   0.000  0.00  0.00    +0.277 C 
ENDBRANCH  14  15
BRANCH  17  18
ATOM     18  O   UNL     1      -2.072  -3.816   0.000  0.00  0.00    -0.491 OA
ATOM     19  C   UNL     1      -3.373  -3.069   0.000  0.00  0.00    +0.277 C 
ENDBRANCH  17  18
ENDBRANCH   8   9
TORSDOF 4