REMARK  Name = 40212
REMARK  2 active torsions:
REMARK  status: ('A' for Active; 'I' for Inactive)
REMARK    1  A    between atoms: C_6  and  C_9
REMARK    2  A    between atoms: C_8  and  C_10
REMARK                            x       y       z     vdW  Elec       q    Type
REMARK                         _______ _______ _______ _____ _____    ______ ____
ROOT
ATOM      1 CL   UNL     1      -4.689  -3.573   0.000  0.00  0.00    -0.062 Cl
ATOM      2  C   UNL     1      -3.390  -4.323   0.000  0.00  0.00    +0.137 A 
ATOM      3  C   UNL     1      -3.390  -5.823   0.000  0.00  0.00    +0.023 A 
ATOM      4  C   UNL     1      -4.689  -6.573   0.000  0.00  0.00    +0.050 C 
ATOM      5  C   UNL     1      -2.091  -6.573   0.000  0.00  0.00    +0.137 A 
ATOM      6  N   UNL     1      -0.792  -5.823   0.000  0.00  0.00    -0.221 NA
ATOM      7  C   UNL     1      -0.792  -4.323   0.000  0.00  0.00    +0.129 A 
ATOM      8  C   UNL     1       0.507  -3.573   0.000  0.00  0.00    +0.088 C 
ATOM      9 CL   UNL     1      -2.091  -8.073   0.000  0.00  0.00    -0.062 Cl
ATOM     10  N   UNL     1      -2.091  -3.573   0.000  0.00  0.00    -0.221 NA
ENDROOT
TORSDOF 0