REMARK  Name = 174176
REMARK  9 active torsions:
REMARK  status: ('A' for Active; 'I' for Inactive)
REMARK    1  A    between atoms: HG_1  and  C_3
REMARK    2  A    between atoms: HG_1  and  O_13
REMARK    3  A    between atoms: C_2  and  C_10
REMARK    4  A    between atoms: C_4  and  C_8
REMARK    5  A    between atoms: C_5  and  C_12
REMARK    6  A    between atoms: C_6  and  C_9
REMARK    7  A    between atoms: C_7  and  C_11
REMARK    8  A    between atoms: O_13  and  C_14
REMARK    9  A    between atoms: C_14  and  C_16
REMARK                            x       y       z     vdW  Elec       q    Type
REMARK                         _______ _______ _______ _____ _____    ______ ____
ROOT
ATOM      6  C   UNL     1      -2.873  -5.524   0.000  0.00  0.00    +0.000 A 
ATOM      7  C   UNL     1      -2.873  -7.024   0.000  0.00  0.00    +0.000 A 
ATOM      8  C   UNL     1      -1.573  -7.774   0.000  0.00  0.00    +0.000 C 
ATOM      9  C   UNL     1      -4.172  -7.774   0.000  0.00  0.00    +0.000 A 
ATOM     10  C   UNL     1      -4.172  -9.274   0.000  0.00  0.00    +0.000 C 
ATOM     11  C   UNL     1      -5.471  -7.024   0.000  0.00  0.00    +0.000 A 
ATOM     12  C   UNL     1      -6.770  -7.774   0.000  0.00  0.00    +0.000 C 
ATOM     13  C   UNL     1      -5.471  -5.524   0.000  0.00  0.00    +0.000 A 
ATOM     14  C   UNL     1      -6.770  -4.774   0.000  0.00  0.00    +0.000 C 
ATOM     15  C   UNL     1      -4.172  -4.774   0.000  0.00  0.00    +0.000 A 
ATOM     16  C   UNL     1      -4.172  -3.275   0.000  0.00  0.00    +0.000 C 
ENDROOT
BRANCH   6   1
ATOM      1 HG   UNL     1      -1.573  -4.774   0.000  0.00  0.00    +0.000 Hg
BRANCH   1   2
ATOM      2  O   UNL     1      -0.275  -5.524   0.000  0.00  0.00    +0.000 OA
BRANCH   2   3
ATOM      3  C   UNL     1       1.025  -4.774   0.000  0.00  0.00    +0.000 C 
ATOM      4  C   UNL     1       1.025  -3.275   0.000  0.00  0.00    +0.000 C 
ATOM      5  O   UNL     1       2.324  -5.524   0.000  0.00  0.00    +0.000 OA
ENDBRANCH   2   3
ENDBRANCH   1   2
ENDBRANCH   6   1
TORSDOF 3