REMARK  Name = 173905
REMARK  12 active torsions:
REMARK  status: ('A' for Active; 'I' for Inactive)
REMARK    1  A    between atoms: C_4  and  C_8
REMARK    2  A    between atoms: C_8  and  C_11
REMARK    3  A    between atoms: C_9  and  C_11
REMARK    4  A    between atoms: C_9  and  C_13
REMARK    5  A    between atoms: C_11  and  N_12
REMARK    6  A    between atoms: C_14  and  C_17
REMARK    7  A    between atoms: N_16  and  C_17
REMARK    8  A    between atoms: C_17  and  C_21
REMARK    9  A    between atoms: C_18  and  C_20
REMARK   10  A    between atoms: C_21  and  C_22
REMARK   11  A    between atoms: C_22  and  C_23
REMARK   12  A    between atoms: C_22  and  C_24
REMARK                            x       y       z     vdW  Elec       q    Type
REMARK                         _______ _______ _______ _____ _____    ______ ____
ROOT
ATOM      5  N   UNL     1      -4.024  -7.520   0.000  0.00  0.00    -0.304 N 
ATOM      6  H   UNL     1      -4.517  -8.372   0.000  0.00  0.00    +0.149 HD
ATOM      7  C   UNL     1      -2.525  -7.520   0.000  0.00  0.00    +0.234 C 
ATOM     18  O   UNL     1      -1.775  -8.819   0.000  0.00  0.00    -0.274 OA
ENDROOT
BRANCH   5   4
ATOM      4  C   UNL     1      -4.774  -6.221   0.000  0.00  0.00    +0.145 C 
BRANCH   4   3
ATOM      3  C   UNL     1      -6.274  -6.221   0.000  0.00  0.00    +0.168 C 
ATOM     26  O   UNL     1      -7.024  -7.520   0.000  0.00  0.00    -0.294 OA
BRANCH   3   2
ATOM      1 CL   UNL     1      -8.524  -4.922   0.000  0.00  0.00    -0.117 Cl
ATOM      2  C   UNL     1      -7.024  -4.922   0.000  0.00  0.00    +0.184 C 
ENDBRANCH   3   2
ENDBRANCH   4   3
BRANCH   4  19
ATOM     19  C   UNL     1      -4.024  -4.922   0.000  0.00  0.00    +0.065 C 
BRANCH  19  20
ATOM     20  C   UNL     1      -4.774  -3.623   0.000  0.00  0.00    -0.045 A 
ATOM     21  C   UNL     1      -6.274  -3.623   0.000  0.00  0.00    +0.004 A 
ATOM     22  C   UNL     1      -7.024  -2.324   0.000  0.00  0.00    +0.000 A 
ATOM     23  C   UNL     1      -6.274  -1.025   0.000  0.00  0.00    +0.000 A 
ATOM     24  C   UNL     1      -4.774  -1.025   0.000  0.00  0.00    +0.000 A 
ATOM     25  C   UNL     1      -4.024  -2.324   0.000  0.00  0.00    +0.004 A 
ENDBRANCH  19  20
ENDBRANCH   4  19
ENDBRANCH   5   4
BRANCH   7   8
ATOM      8  C   UNL     1      -1.775  -6.221   0.000  0.00  0.00    +0.159 C 
BRANCH   8  13
ATOM     13  N   UNL     1      -2.525  -4.922   0.000  0.00  0.00    -0.304 N 
ATOM     14  H   UNL     1      -3.509  -4.922   0.000  0.00  0.00    +0.149 HD
ATOM     15  C   UNL     1      -1.775  -3.623   0.000  0.00  0.00    +0.211 C 
ATOM     16  C   UNL     1      -0.275  -3.623   0.000  0.00  0.00    +0.109 C 
ATOM     17  O   UNL     1      -2.525  -2.324   0.000  0.00  0.00    -0.276 OA
ENDBRANCH   8  13
BRANCH   8   9
ATOM      9  C   UNL     1      -0.275  -6.221   0.000  0.00  0.00    +0.034 C 
BRANCH   9  10
ATOM     10  C   UNL     1       0.475  -7.520   0.000  0.00  0.00    -0.015 C 
ATOM     11  C   UNL     1       1.976  -7.520   0.000  0.00  0.00    +0.007 C 
ATOM     12  C   UNL     1      -0.275  -8.819   0.000  0.00  0.00    +0.007 C 
ENDBRANCH   9  10
ENDBRANCH   8   9
ENDBRANCH   7   8
TORSDOF 9