REMARK  Name = 319726
REMARK  5 active torsions:
REMARK  status: ('A' for Active; 'I' for Inactive)
REMARK    1  A    between atoms: C_6  and  C_7
REMARK    2  A    between atoms: C_7  and  C_15
REMARK    3  A    between atoms: N_8  and  N_16
REMARK    4  A    between atoms: C_9  and  N_11
REMARK    5  A    between atoms: C_9  and  N_16
REMARK                            x       y       z     vdW  Elec       q    Type
REMARK                         _______ _______ _______ _____ _____    ______ ____
ROOT
ATOM      5  C   UNL     1      -2.990  -7.789   0.000  0.00  0.00    +0.081 C 
ATOM      6  C   UNL     1      -3.740  -9.088   0.000  0.00  0.00    +0.069 C 
ATOM      7  N   UNL     1      -1.490  -7.789   0.000  0.00  0.00    -0.184 NA
ENDROOT
BRANCH   5   4
ATOM      1  C   UNL     1      -5.240  -3.892   0.000  0.00  0.00    +0.020 A 
ATOM      2  C   UNL     1      -5.990  -5.191   0.000  0.00  0.00    +0.004 A 
ATOM      3  C   UNL     1      -5.240  -6.490   0.000  0.00  0.00    +0.029 A 
ATOM      4  C   UNL     1      -3.740  -6.490   0.000  0.00  0.00    +0.086 A 
ATOM     16  N   UNL     1      -2.990  -5.191   0.000  0.00  0.00    -0.254 NA
ATOM     17  C   UNL     1      -3.740  -3.892   0.000  0.00  0.00    +0.111 A 
ENDBRANCH   5   4
BRANCH   7   8
ATOM      8  N   UNL     1      -0.741  -9.088   0.000  0.00  0.00    -0.218 N 
ATOM      9  H   UNL     1       0.244  -9.088   0.000  0.00  0.00    +0.176 HD
BRANCH   8  10
ATOM     10  C   UNL     1      -1.490 -10.387   0.000  0.00  0.00    +0.153 C 
ATOM     15  S   UNL     1      -2.990 -10.387   0.000  0.00  0.00    -0.017 S 
BRANCH  10  11
ATOM     11  N   UNL     1      -0.741 -11.686   0.000  0.00  0.00    -0.311 N 
ATOM     12  C   UNL     1       0.708 -12.074   0.000  0.00  0.00    +0.108 C 
ATOM     13  C   UNL     1       0.320 -13.523   0.000  0.00  0.00    +0.038 C 
ATOM     14  C   UNL     1      -1.129 -13.135   0.000  0.00  0.00    +0.108 C 
ENDBRANCH  10  11
ENDBRANCH   8  10
ENDBRANCH   7   8
TORSDOF 4