REMARK  Name = 299187
REMARK  8 active torsions:
REMARK  status: ('A' for Active; 'I' for Inactive)
REMARK    1  A    between atoms: C_11  and  O_21
REMARK    2  A    between atoms: C_14  and  N_24
REMARK    3  A    between atoms: C_17  and  C_18
REMARK    4  A    between atoms: C_17  and  N_24
REMARK    5  A    between atoms: C_18  and  N_23
REMARK    6  A    between atoms: C_19  and  C_20
REMARK    7  A    between atoms: C_19  and  N_23
REMARK    8  A    between atoms: C_20  and  O_22
REMARK                            x       y       z     vdW  Elec       q    Type
REMARK                         _______ _______ _______ _____ _____    ______ ____
ROOT
ATOM      1  C   UNL     1      -2.324   7.024   0.000  0.00  0.00    +0.001 A 
ATOM      2  C   UNL     1      -1.025   7.774   0.000  0.00  0.00    +0.012 A 
ATOM      3  C   UNL     1       0.275   7.024   0.000  0.00  0.00    +0.033 A 
ATOM      4  C   UNL     1       1.574   7.774   0.000  0.00  0.00    +0.196 C 
ATOM      5  O   UNL     1       1.574   9.274   0.000  0.00  0.00    -0.287 OA
ATOM      6  C   UNL     1       2.873   7.024   0.000  0.00  0.00    +0.057 A 
ATOM      7  C   UNL     1       4.172   7.774   0.000  0.00  0.00    +0.039 A 
ATOM     18  C   UNL     1       5.471   7.024   0.000  0.00  0.00    +0.027 A 
ATOM     19  C   UNL     1       5.471   5.524   0.000  0.00  0.00    +0.048 A 
ATOM     20  C   UNL     1       4.172   4.774   0.000  0.00  0.00    +0.128 A 
ATOM     23  C   UNL     1       2.873   5.524   0.000  0.00  0.00    +0.076 A 
ATOM     24  C   UNL     1       1.574   4.774   0.000  0.00  0.00    +0.198 C 
ATOM     25  O   UNL     1       1.574   3.275   0.000  0.00  0.00    -0.286 OA
ATOM     26  C   UNL     1       0.275   5.524   0.000  0.00  0.00    +0.033 A 
ATOM     27  C   UNL     1      -1.025   4.774   0.000  0.00  0.00    +0.012 A 
ATOM     28  C   UNL     1      -2.324   5.524   0.000  0.00  0.00    +0.001 A 
ENDROOT
BRANCH   7   8
ATOM      8  N   UNL     1       4.172   9.274   0.000  0.00  0.00    -0.342 N 
ATOM      9  H   UNL     1       3.319   9.767   0.000  0.00  0.00    +0.146 HD
BRANCH   8  10
ATOM     10  C   UNL     1       5.471  10.025   0.000  0.00  0.00    +0.116 C 
BRANCH  10  11
ATOM     11  C   UNL     1       6.770   9.274   0.000  0.00  0.00    +0.099 C 
BRANCH  11  12
ATOM     12  N   UNL     1       8.069  10.025   0.000  0.00  0.00    -0.312 NA
ATOM     13  H   UNL     1       8.069  11.044   0.000  0.00  0.00    +0.122 HD
BRANCH  12  14
ATOM     14  C   UNL     1       9.368   9.274   0.000  0.00  0.00    +0.108 C 
BRANCH  14  15
ATOM     15  C   UNL     1      10.667  10.025   0.000  0.00  0.00    +0.171 C 
BRANCH  15  16
ATOM     16  O   UNL     1      11.966   9.274   0.000  0.00  0.00    -0.394 OA
ATOM     17  H   UNL     1      11.966   8.305   0.000  0.00  0.00    +0.209 HD
ENDBRANCH  15  16
ENDBRANCH  14  15
ENDBRANCH  12  14
ENDBRANCH  11  12
ENDBRANCH  10  11
ENDBRANCH   8  10
ENDBRANCH   7   8
BRANCH  20  21
ATOM     21  O   UNL     1       4.172   3.275   0.000  0.00  0.00    -0.506 OA
ATOM     22  H   UNL     1       3.360   2.806   0.000  0.00  0.00    +0.292 HD
ENDBRANCH  20  21
TORSDOF 8