REMARK  Name = 305782
REMARK  3 active torsions:
REMARK  status: ('A' for Active; 'I' for Inactive)
REMARK    1  A    between atoms: C_2  and  C_16
REMARK    2  A    between atoms: C_5  and  S_19
REMARK    3  A    between atoms: C_8  and  S_19
REMARK                            x       y       z     vdW  Elec       q    Type
REMARK                         _______ _______ _______ _____ _____    ______ ____
ROOT
ATOM      7  C   UNL     1      -7.245  -3.000   0.000  0.00  0.00    +0.014 A 
ATOM      8  C   UNL     1      -7.245  -4.500   0.000  0.00  0.00    +0.017 A 
ATOM      9  C   UNL     1      -5.946  -5.250   0.000  0.00  0.00    +0.029 A 
ATOM     10  C   UNL     1      -4.647  -4.500   0.000  0.00  0.00    +0.078 A 
ATOM     11  N   UNL     1      -3.348  -5.250   0.000  0.00  0.00    -0.215 NA
ATOM     12  C   UNL     1      -2.049  -4.500   0.000  0.00  0.00    +0.215 A 
ATOM     13  N   UNL     1      -0.750  -5.250   0.000  0.00  0.00    -0.327 N 
ATOM     14  H   UNL     1       0.103  -4.758   0.000  0.00  0.00    +0.145 HD
ATOM     15  H   UNL     1      -0.750  -6.234   0.000  0.00  0.00    +0.145 HD
ATOM     16  N   UNL     1      -2.049  -3.000   0.000  0.00  0.00    -0.200 NA
ATOM     17  C   UNL     1      -3.348  -2.250   0.000  0.00  0.00    +0.129 A 
ATOM     18  N   UNL     1      -3.348  -0.750   0.000  0.00  0.00    -0.343 N 
ATOM     19  H   UNL     1      -4.201  -0.258   0.000  0.00  0.00    +0.144 HD
ATOM     20  H   UNL     1      -2.495  -0.258   0.000  0.00  0.00    +0.144 HD
ATOM     21  C   UNL     1      -4.647  -3.000   0.000  0.00  0.00    +0.041 A 
ATOM     22  C   UNL     1      -5.946  -2.250   0.000  0.00  0.00    +0.028 A 
ENDROOT
BRANCH   7   6
ATOM      6  S   UNL     1      -8.544  -2.250   0.000  0.00  0.00    -0.089 S 
BRANCH   6   2
ATOM      1  C   UNL     1     -11.142  -2.250   0.000  0.00  0.00    +0.027 A 
ATOM      2  C   UNL     1      -9.843  -3.000   0.000  0.00  0.00    +0.013 A 
ATOM      3  C   UNL     1      -9.843  -4.500   0.000  0.00  0.00    +0.015 A 
ATOM      4  C   UNL     1     -11.142  -5.250   0.000  0.00  0.00    +0.002 A 
ATOM      5  C   UNL     1     -12.441  -4.500   0.000  0.00  0.00    +0.012 A 
ATOM     23  C   UNL     1     -12.441  -3.000   0.000  0.00  0.00    +0.056 A 
BRANCH  23  24
ATOM     24  C   UNL     1     -13.740  -2.250   0.000  0.00  0.00    +0.417 C 
ATOM     25  F   UNL     1     -15.039  -1.500   0.000  0.00  0.00    -0.166 F 
ATOM     26  F   UNL     1     -13.740  -0.750   0.000  0.00  0.00    -0.166 F 
ATOM     27  F   UNL     1     -15.039  -3.000   0.000  0.00  0.00    -0.166 F 
ENDBRANCH  23  24
ENDBRANCH   6   2
ENDBRANCH   7   6
TORSDOF 3