REMARK  Name = 186
REMARK  6 active torsions:
REMARK  status: ('A' for Active; 'I' for Inactive)
REMARK    1  A    between atoms: C_3  and  O_15
REMARK    2  A    between atoms: C_4  and  C_12
REMARK    3  A    between atoms: C_9  and  C_16
REMARK    4  A    between atoms: C_10  and  C_17
REMARK    5  A    between atoms: C_11  and  C_18
REMARK    6  A    between atoms: C_12  and  O_14
REMARK                            x       y       z     vdW  Elec       q    Type
REMARK                         _______ _______ _______ _____ _____    ______ ____
ROOT
ATOM      1  O   UNL     1      -9.468  -1.400   0.000  0.00  0.00    -0.287 OA
ATOM      2  C   UNL     1      -8.169  -0.649   0.000  0.00  0.00    +0.200 C 
ATOM      3  C   UNL     1      -6.870  -1.400   0.000  0.00  0.00    +0.001 C 
ATOM      4  C   UNL     1      -6.870  -2.900   0.000  0.00  0.00    +0.048 C 
ATOM      5  C   UNL     1      -5.571  -0.649   0.000  0.00  0.00    -0.021 C 
ATOM      6  C   UNL     1      -4.272  -1.400   0.000  0.00  0.00    +0.057 C 
ATOM      7  C   UNL     1      -4.272  -2.900   0.000  0.00  0.00    +0.016 C 
ATOM      8  C   UNL     1      -2.973  -0.649   0.000  0.00  0.00    +0.177 C 
ATOM      9  C   UNL     1      -1.674  -1.400   0.000  0.00  0.00    +0.052 C 
ATOM     10  O   UNL     1      -2.973   0.851   0.000  0.00  0.00    -0.495 OA
ATOM     11  C   UNL     1      -4.272   1.601   0.000  0.00  0.00    +0.199 C 
ATOM     12  C   UNL     1      -5.571   0.851   0.000  0.00  0.00    +0.055 C 
ATOM     13  C   UNL     1      -6.870   1.601   0.000  0.00  0.00    +0.145 C 
ATOM     16  C   UNL     1      -8.169   0.851   0.000  0.00  0.00    +0.147 C 
ENDROOT
BRANCH  13  14
ATOM     14  O   UNL     1      -6.870   3.100   0.000  0.00  0.00    -0.505 OA
ATOM     15  H   UNL     1      -6.059   3.569   0.000  0.00  0.00    +0.292 HD
ENDBRANCH  13  14
BRANCH  16  17
ATOM     17  C   UNL     1      -9.468   1.601   0.000  0.00  0.00    +0.344 C 
ATOM     20  O   UNL     1     -10.767   0.851   0.000  0.00  0.00    -0.245 OA
BRANCH  17  18
ATOM     18  O   UNL     1      -9.468   3.100   0.000  0.00  0.00    -0.477 OA
ATOM     19  H   UNL     1      -8.657   3.569   0.000  0.00  0.00    +0.295 HD
ENDBRANCH  17  18
ENDBRANCH  16  17
TORSDOF 3