REMARK  Name = 241509
REMARK  12 active torsions:
REMARK  status: ('A' for Active; 'I' for Inactive)
REMARK    1  A    between atoms: C_6  and  C_14
REMARK    2  A    between atoms: C_7  and  C_9
REMARK    3  A    between atoms: N_11  and  C_19
REMARK    4  A    between atoms: C_15  and  C_18
REMARK    5  A    between atoms: C_19  and  C_20
REMARK    6  A    between atoms: C_19  and  C_21
REMARK    7  A    between atoms: C_20  and  O_22
REMARK    8  A    between atoms: C_21  and  S_23
REMARK    9  A    between atoms: S_23  and  C_25
REMARK   10  A    between atoms: C_25  and  C_26
REMARK   11  A    between atoms: C_26  and  C_27
REMARK   12  A    between atoms: C_27  and  C_28
REMARK                            x       y       z     vdW  Elec       q    Type
REMARK                         _______ _______ _______ _____ _____    ______ ____
ROOT
ATOM     11  C   UNK A   0       8.544   5.250   0.000  0.00  0.00    +0.237 C 
ATOM     12  N   UNK A   1       9.843   4.500   0.000  0.00  0.00    -0.306 N 
ATOM     24  H   UNK A   1       9.843   3.000   0.000  0.00  0.00    +0.149 HD
ATOM     25  O   UNK A   0       8.544   6.750   0.000  0.00  0.00    -0.271 OA
ENDROOT
BRANCH  11  10
ATOM      9  C   UNK A   0       5.946   5.250   0.000  0.00  0.00    +0.020 C 
ATOM     10  C   UNK A   0       7.245   4.500   0.000  0.00  0.00    +0.068 C 
BRANCH   9   6
ATOM      1  O   UNK A   0       0.750   2.250   0.000  0.00  0.00    -0.247 OA
ATOM      2  C   UNK A   0       2.049   3.000   0.000  0.00  0.00    +0.327 A 
ATOM      3  N   UNK A   0       2.049   4.500   0.000  0.00  0.00    -0.275 N 
ATOM      4  H   UNK A   0       1.196   4.992   0.000  0.00  0.00    +0.173 HD
ATOM      5  C   UNK A   0       3.348   5.250   0.000  0.00  0.00    +0.261 A 
ATOM      6  C   UNK A   0       4.647   4.500   0.000  0.00  0.00    +0.059 A 
ATOM      7  C   UNK A   0       4.647   3.000   0.000  0.00  0.00    +0.030 A 
ATOM      8  C   UNK A   0       5.946   2.250   0.000  0.00  0.00    +0.064 C 
ATOM     26  O   UNK A   0       3.348   6.750   0.000  0.00  0.00    -0.267 OA
ATOM     27  N   UNK A   0       3.348   2.250   0.000  0.00  0.00    -0.311 N 
ATOM     28  H   UNK A   0       3.348   0.750   0.000  0.00  0.00    +0.170 HD
ENDBRANCH   9   6
ENDBRANCH  11  10
BRANCH  12  13
ATOM     13  C   UNK A   1      11.142   5.250   0.000  0.00  0.00    +0.111 C 
BRANCH  13  14
ATOM     14  C   UNK A   1      12.441   4.500   0.000  0.00  0.00    +0.128 C 
BRANCH  14  15
ATOM     15  S   UNK A   1      13.740   5.250   0.000  0.00  0.00    +0.024 S 
ATOM     20  O   UNK A   1      13.740   6.750   0.000  0.00  0.00    -0.257 OA
BRANCH  15  16
ATOM     16  C   UNK A   1      15.039   4.500   0.000  0.00  0.00    +0.104 C 
BRANCH  16  17
ATOM     17  C   UNK A   1      16.339   5.250   0.000  0.00  0.00    +0.013 C 
BRANCH  17  18
ATOM     18  C   UNK A   1      17.637   4.500   0.000  0.00  0.00    -0.003 C 
ATOM     19  C   UNK A   1      17.637   3.000   0.000  0.00  0.00    +0.004 C 
ENDBRANCH  17  18
ENDBRANCH  16  17
ENDBRANCH  15  16
ENDBRANCH  14  15
ENDBRANCH  13  14
BRANCH  13  21
ATOM     21  C   UNK A   1      11.142   6.750   0.000  0.00  0.00    +0.179 C 
BRANCH  21  22
ATOM     22  O   UNK A   1      12.441   7.500   0.000  0.00  0.00    -0.393 OA
ATOM     23  H   UNK A   1      13.281   7.015   0.000  0.00  0.00    +0.209 HD
ENDBRANCH  21  22
ENDBRANCH  13  21
ENDBRANCH  12  13
TORSDOF 10