REMARK  Name = 260610
REMARK  13 active torsions:
REMARK  status: ('A' for Active; 'I' for Inactive)
REMARK    1  A    between atoms: C_9  and  N_29
REMARK    2  A    between atoms: C_13  and  O_39
REMARK    3  A    between atoms: C_16  and  N_30
REMARK    4  A    between atoms: C_26  and  O_37
REMARK    5  A    between atoms: N_29  and  C_31
REMARK    6  A    between atoms: N_30  and  C_36
REMARK    7  A    between atoms: C_31  and  C_32
REMARK    8  A    between atoms: C_32  and  C_33
REMARK    9  A    between atoms: C_33  and  C_34
REMARK   10  A    between atoms: C_34  and  C_35
REMARK   11  A    between atoms: C_35  and  C_36
REMARK   12  A    between atoms: O_37  and  C_38
REMARK   13  A    between atoms: O_39  and  C_40
REMARK                            x       y       z     vdW  Elec       q    Type
REMARK                         _______ _______ _______ _____ _____    ______ ____
ROOT
ATOM     15  C   UNL     1       7.520   1.025   0.000  0.00  0.00    +0.002 C 
ENDROOT
BRANCH  15  14
ATOM     14  C   UNL     1       7.520   2.525   0.000  0.00  0.00    +0.019 C 
BRANCH  14  13
ATOM     13  C   UNL     1       8.929   3.038   0.000  0.00  0.00    +0.101 C 
BRANCH  13  11
ATOM     11  N   UNL     1       8.929   4.538   0.000  0.00  0.00    -0.343 N 
ATOM     12  H   UNL     1       8.077   5.030   0.000  0.00  0.00    +0.146 HD
BRANCH  11  10
ATOM      1  N   UNL     1      12.826   6.788   0.000  0.00  0.00    -0.246 NA
ATOM      2  C   UNL     1      12.826   5.288   0.000  0.00  0.00    +0.077 A 
ATOM      3  C   UNL     1      14.125   4.538   0.000  0.00  0.00    +0.074 A 
ATOM      4  C   UNL     1      14.125   3.038   0.000  0.00  0.00    +0.122 A 
ATOM      7  C   UNL     1      12.826   2.288   0.000  0.00  0.00    +0.046 A 
ATOM      8  C   UNL     1      11.527   3.038   0.000  0.00  0.00    +0.015 A 
ATOM      9  C   UNL     1      11.527   4.538   0.000  0.00  0.00    +0.022 A 
ATOM     10  C   UNL     1      10.228   5.288   0.000  0.00  0.00    +0.046 A 
ATOM     37  C   UNL     1      10.228   6.788   0.000  0.00  0.00    +0.022 A 
ATOM     38  C   UNL     1       8.929   7.538   0.000  0.00  0.00    +0.012 A 
ATOM     39  C   UNL     1       8.929   9.038   0.000  0.00  0.00    +0.001 A 
ATOM     40  C   UNL     1      10.228   9.788   0.000  0.00  0.00    +0.002 A 
ATOM     41  C   UNL     1      11.527   9.038   0.000  0.00  0.00    +0.028 A 
ATOM     42  C   UNL     1      11.527   7.538   0.000  0.00  0.00    +0.073 A 
BRANCH   4   5
ATOM      5  O   UNL     1      15.424   2.288   0.000  0.00  0.00    -0.495 OA
ATOM      6  C   UNL     1      16.724   3.038   0.000  0.00  0.00    +0.277 C 
ENDBRANCH   4   5
ENDBRANCH  11  10
ENDBRANCH  13  11
ENDBRANCH  14  13
ENDBRANCH  15  14
BRANCH  15  16
ATOM     16  C   UNL     1       8.819   0.275   0.000  0.00  0.00    +0.002 C 
BRANCH  16  17
ATOM     17  C   UNL     1       9.968   1.239   0.000  0.00  0.00    +0.019 C 
BRANCH  17  18
ATOM     18  C   UNL     1      11.377   0.726   0.000  0.00  0.00    +0.101 C 
BRANCH  18  19
ATOM     19  N   UNL     1      11.377  -0.774   0.000  0.00  0.00    -0.343 N 
ATOM     20  H   UNL     1      10.525  -1.267   0.000  0.00  0.00    +0.146 HD
BRANCH  19  21
ATOM     21  C   UNL     1      12.676  -1.524   0.000  0.00  0.00    +0.046 A 
ATOM     22  C   UNL     1      13.975  -0.774   0.000  0.00  0.00    +0.022 A 
ATOM     23  C   UNL     1      13.975   0.726   0.000  0.00  0.00    +0.015 A 
ATOM     24  C   UNL     1      15.275   1.476   0.000  0.00  0.00    +0.046 A 
ATOM     25  C   UNL     1      16.573   0.726   0.000  0.00  0.00    +0.122 A 
ATOM     28  C   UNL     1      16.573  -0.774   0.000  0.00  0.00    +0.074 A 
ATOM     29  C   UNL     1      15.275  -1.524   0.000  0.00  0.00    +0.077 A 
ATOM     30  N   UNL     1      15.275  -3.024   0.000  0.00  0.00    -0.246 NA
ATOM     31  C   UNL     1      13.975  -3.774   0.000  0.00  0.00    +0.073 A 
ATOM     32  C   UNL     1      13.975  -5.274   0.000  0.00  0.00    +0.028 A 
ATOM     33  C   UNL     1      12.676  -6.024   0.000  0.00  0.00    +0.002 A 
ATOM     34  C   UNL     1      11.377  -5.274   0.000  0.00  0.00    +0.001 A 
ATOM     35  C   UNL     1      11.377  -3.774   0.000  0.00  0.00    +0.012 A 
ATOM     36  C   UNL     1      12.676  -3.024   0.000  0.00  0.00    +0.022 A 
BRANCH  25  26
ATOM     26  O   UNL     1      17.872   1.476   0.000  0.00  0.00    -0.495 OA
ATOM     27  C   UNL     1      17.872   2.976   0.000  0.00  0.00    +0.277 C 
ENDBRANCH  25  26
ENDBRANCH  19  21
ENDBRANCH  18  19
ENDBRANCH  17  18
ENDBRANCH  16  17
ENDBRANCH  15  16
TORSDOF 11