REMARK  Name = 102815
REMARK  15 active torsions:
REMARK  status: ('A' for Active; 'I' for Inactive)
REMARK    1  A    between atoms: C_5  and  O_42
REMARK    2  A    between atoms: C_6  and  N_28
REMARK    3  A    between atoms: C_8  and  O_31
REMARK    4  A    between atoms: C_9  and  C_32
REMARK    5  A    between atoms: C_11  and  C_38
REMARK    6  A    between atoms: C_12  and  C_36
REMARK    7  A    between atoms: C_12  and  O_37
REMARK    8  A    between atoms: C_24  and  O_34
REMARK    9  A    between atoms: C_25  and  O_33
REMARK   10  A    between atoms: C_27  and  O_43
REMARK   11  A    between atoms: N_28  and  C_29
REMARK   12  A    between atoms: N_28  and  C_30
REMARK   13  A    between atoms: O_34  and  C_35
REMARK   14  A    between atoms: C_38  and  O_40
REMARK   15  A    between atoms: O_40  and  C_41
REMARK                            x       y       z     vdW  Elec       q    Type
REMARK                         _______ _______ _______ _____ _____    ______ ____
ROOT
ATOM      1  O   UNL     1       4.647   7.500   0.000  0.00  0.00    -0.326 OA
ATOM      2  C   UNL     1       4.647   6.000   0.000  0.00  0.00    +0.126 C 
ATOM      3  C   UNL     1       3.897   4.701   0.000  0.00  0.00    +0.050 C 
ATOM      4  C   UNL     1       5.946   5.250   0.000  0.00  0.00    +0.033 A 
ATOM      5  C   UNL     1       5.946   3.750   0.000  0.00  0.00    +0.056 A 
ATOM      6  C   UNL     1       7.245   3.000   0.000  0.00  0.00    +0.129 A 
ATOM      9  C   UNL     1       8.544   3.750   0.000  0.00  0.00    +0.078 A 
ATOM     10  C   UNL     1       9.843   3.000   0.000  0.00  0.00    +0.202 C 
ATOM     11  C   UNL     1      11.142   3.750   0.000  0.00  0.00    +0.075 A 
ATOM     12  C   UNL     1      12.441   3.000   0.000  0.00  0.00    +0.134 A 
ATOM     15  C   UNL     1      13.740   3.750   0.000  0.00  0.00    +0.027 A 
ATOM     16  C   UNL     1      15.039   3.000   0.000  0.00  0.00    +0.154 C 
ATOM     19  C   UNL     1      16.339   3.750   0.000  0.00  0.00    +0.072 C 
ATOM     20  C   UNL     1      16.339   5.250   0.000  0.00  0.00    +0.083 C 
ATOM     23  C   UNL     1      16.852   6.660   0.000  0.00  0.00    +0.042 C 
ATOM     24  C   UNL     1      15.039   6.000   0.000  0.00  0.00    +0.159 C 
ATOM     29  C   UNL     1      13.740   5.250   0.000  0.00  0.00    -0.021 A 
ATOM     30  C   UNL     1      12.441   6.000   0.000  0.00  0.00    +0.017 A 
ATOM     31  C   UNL     1      11.142   5.250   0.000  0.00  0.00    +0.037 A 
ATOM     32  C   UNL     1       9.843   6.000   0.000  0.00  0.00    +0.198 C 
ATOM     33  O   UNL     1       9.843   7.500   0.000  0.00  0.00    -0.286 OA
ATOM     34  O   UNL     1       9.843   1.500   0.000  0.00  0.00    -0.286 OA
ATOM     35  C   UNL     1       8.544   5.250   0.000  0.00  0.00    +0.079 A 
ATOM     36  C   UNL     1       7.245   6.000   0.000  0.00  0.00    +0.142 A 
ATOM     37  O   UNL     1       7.245   7.500   0.000  0.00  0.00    -0.460 OA
ATOM     38  C   UNL     1       3.348   6.750   0.000  0.00  0.00    +0.170 C 
ATOM     41  C   UNL     1       3.348   8.250   0.000  0.00  0.00    +0.123 C 
ATOM     45  C   UNL     1       4.647   9.000   0.000  0.00  0.00    +0.202 C 
ATOM     48  C   UNL     1       5.946   8.250   0.000  0.00  0.00    +0.339 C 
ENDROOT
BRANCH  41  42
ATOM     42  N   UNL     1       2.049   9.000   0.000  0.00  0.00    -0.301 NA
ATOM     43  C   UNL     1       2.049  10.500   0.000  0.00  0.00    +0.105 C 
ATOM     44  C   UNL     1       0.750   8.250   0.000  0.00  0.00    +0.105 C 
ENDBRANCH  41  42
BRANCH   6   7
ATOM      7  O   UNL     1       7.245   1.500   0.000  0.00  0.00    -0.506 OA
ATOM      8  H   UNL     1       6.434   1.031   0.000  0.00  0.00    +0.292 HD
ENDBRANCH   6   7
BRANCH  12  13
ATOM     13  O   UNL     1      12.441   1.500   0.000  0.00  0.00    -0.506 OA
ATOM     14  H   UNL     1      11.630   1.031   0.000  0.00  0.00    +0.292 HD
ENDBRANCH  12  13
BRANCH  16  17
ATOM     17  O   UNL     1      15.039   1.500   0.000  0.00  0.00    -0.375 OA
ATOM     18  C   UNL     1      13.740   0.750   0.000  0.00  0.00    +0.194 C 
ENDBRANCH  16  17
BRANCH  20  21
ATOM     21  O   UNL     1      17.816   4.989   0.000  0.00  0.00    -0.388 OA
ATOM     22  H   UNL     1      18.147   4.078   0.000  0.00  0.00    +0.210 HD
ENDBRANCH  20  21
BRANCH  24  25
ATOM     25  C   UNL     1      15.039   7.500   0.000  0.00  0.00    +0.317 C 
ATOM     28  O   UNL     1      13.740   8.250   0.000  0.00  0.00    -0.250 OA
BRANCH  25  26
ATOM     26  O   UNL     1      16.339   8.250   0.000  0.00  0.00    -0.467 OA
ATOM     27  C   UNL     1      17.637   7.500   0.000  0.00  0.00    +0.280 C 
ENDBRANCH  25  26
ENDBRANCH  24  25
BRANCH  38  39
ATOM     39  O   UNL     1       2.049   6.000   0.000  0.00  0.00    -0.387 OA
ATOM     40  H   UNL     1       1.209   6.485   0.000  0.00  0.00    +0.210 HD
ENDBRANCH  38  39
BRANCH  45  46
ATOM     46  O   UNL     1       4.647  10.500   0.000  0.00  0.00    -0.384 OA
ATOM     47  H   UNL     1       5.487  10.985   0.000  0.00  0.00    +0.210 HD
ENDBRANCH  45  46
TORSDOF 9