REMARK  Name = 191389
REMARK  5 active torsions:
REMARK  status: ('A' for Active; 'I' for Inactive)
REMARK    1  A    between atoms: C_2  and  C_19
REMARK    2  A    between atoms: C_9  and  N_15
REMARK    3  A    between atoms: C_10  and  C_14
REMARK    4  A    between atoms: C_11  and  C_13
REMARK    5  A    between atoms: C_16  and  C_18
REMARK                            x       y       z     vdW  Elec       q    Type
REMARK                         _______ _______ _______ _____ _____    ______ ____
ROOT
ATOM      5  C   UNL     1       2.049  -5.250   0.000  0.00  0.00    +0.241 C 
ATOM      6  O   UNL     1       0.750  -6.000   0.000  0.00  0.00    -0.270 OA
ATOM      7  N   UNL     1       2.049  -3.750   0.000  0.00  0.00    -0.282 N 
ATOM      8  H   UNL     1       1.196  -3.258   0.000  0.00  0.00    +0.155 HD
ENDROOT
BRANCH   7   9
ATOM      9  C   UNL     1       3.348  -3.000   0.000  0.00  0.00    +0.037 A 
ATOM     10  C   UNL     1       3.348  -1.500   0.000  0.00  0.00    -0.029 A 
ATOM     11  C   UNL     1       2.049  -0.750   0.000  0.00  0.00    +0.045 C 
ATOM     12  C   UNL     1       4.647  -0.750   0.000  0.00  0.00    +0.008 A 
ATOM     13  C   UNL     1       5.946  -1.500   0.000  0.00  0.00    -0.050 A 
ATOM     14  C   UNL     1       7.245  -0.750   0.000  0.00  0.00    +0.044 C 
ATOM     15  C   UNL     1       5.946  -3.000   0.000  0.00  0.00    +0.005 A 
ATOM     16  C   UNL     1       4.647  -3.750   0.000  0.00  0.00    +0.024 A 
ENDBRANCH   7   9
BRANCH   5   4
ATOM      3  C   UNL     1       3.348  -7.500   0.000  0.00  0.00    +0.013 C 
ATOM      4  C   UNL     1       3.348  -6.000   0.000  0.00  0.00    +0.068 C 
BRANCH   3   2
ATOM      1  C   UNL     1       5.946  -7.500   0.000  0.00  0.00    +0.008 A 
ATOM      2  C   UNL     1       4.647  -8.250   0.000  0.00  0.00    -0.025 A 
ATOM     17  C   UNL     1       4.647  -9.750   0.000  0.00  0.00    +0.008 A 
ATOM     18  C   UNL     1       5.946 -10.500   0.000  0.00  0.00    +0.001 A 
ATOM     19  C   UNL     1       7.245  -9.750   0.000  0.00  0.00    +0.000 A 
ATOM     20  C   UNL     1       7.245  -8.250   0.000  0.00  0.00    +0.001 A 
ENDBRANCH   3   2
ENDBRANCH   5   4
TORSDOF 3