REMARK  Name = 408120
REMARK  4 active torsions:
REMARK  status: ('A' for Active; 'I' for Inactive)
REMARK    1  A    between atoms: C_3  and  O_19
REMARK    2  A    between atoms: C_8  and  O_18
REMARK    3  A    between atoms: C_10  and  O_20
REMARK    4  A    between atoms: C_13  and  C_17
REMARK                            x       y       z     vdW  Elec       q    Type
REMARK                         _______ _______ _______ _____ _____    ______ ____
ROOT
ATOM      1  O   UNL     1      -5.946  -0.750   0.000  0.00  0.00    -0.286 OA
ATOM      2  C   UNL     1      -5.946  -2.250   0.000  0.00  0.00    +0.202 C 
ATOM      3  C   UNL     1      -7.245  -3.000   0.000  0.00  0.00    +0.075 A 
ATOM      4  C   UNL     1      -8.544  -2.250   0.000  0.00  0.00    +0.129 A 
ATOM      7  C   UNL     1      -9.843  -3.000   0.000  0.00  0.00    +0.049 A 
ATOM      8  C   UNL     1      -9.843  -4.500   0.000  0.00  0.00    -0.046 A 
ATOM      9  C   UNL     1     -11.142  -5.250   0.000  0.00  0.00    +0.044 C 
ATOM     10  C   UNL     1      -8.544  -5.250   0.000  0.00  0.00    +0.016 A 
ATOM     11  C   UNL     1      -7.245  -4.500   0.000  0.00  0.00    +0.037 A 
ATOM     12  C   UNL     1      -5.946  -5.250   0.000  0.00  0.00    +0.195 C 
ATOM     13  C   UNL     1      -4.647  -4.500   0.000  0.00  0.00    +0.040 A 
ATOM     14  C   UNL     1      -3.348  -5.250   0.000  0.00  0.00    +0.058 A 
ATOM     15  C   UNL     1      -2.049  -4.500   0.000  0.00  0.00    +0.121 A 
ATOM     18  C   UNL     1      -2.049  -3.000   0.000  0.00  0.00    +0.091 A 
ATOM     19  C   UNL     1      -3.348  -2.250   0.000  0.00  0.00    +0.132 A 
ATOM     22  O   UNL     1      -5.946  -6.750   0.000  0.00  0.00    -0.287 OA
ATOM     23  C   UNL     1      -4.647  -3.000   0.000  0.00  0.00    +0.075 A 
ENDROOT
BRANCH   4   5
ATOM      5  O   UNL     1      -8.544  -0.750   0.000  0.00  0.00    -0.506 OA
ATOM      6  H   UNL     1      -7.733  -0.281   0.000  0.00  0.00    +0.292 HD
ENDBRANCH   4   5
BRANCH  15  16
ATOM     16  O   UNL     1      -0.750  -5.250   0.000  0.00  0.00    -0.507 OA
ATOM     17  H   UNL     1      -0.750  -6.187   0.000  0.00  0.00    +0.292 HD
ENDBRANCH  15  16
BRANCH  19  20
ATOM     20  O   UNL     1      -3.348  -0.750   0.000  0.00  0.00    -0.506 OA
ATOM     21  H   UNL     1      -2.537  -0.281   0.000  0.00  0.00    +0.292 HD
ENDBRANCH  19  20
TORSDOF 3