REMARK  Name = 18804
REMARK  4 active torsions:
REMARK  status: ('A' for Active; 'I' for Inactive)
REMARK    1  A    between atoms: C_2  and  O_9
REMARK    2  A    between atoms: C_5  and  C_10
REMARK    3  A    between atoms: C_10  and  C_11
REMARK    4  A    between atoms: C_10  and  C_12
REMARK                            x       y       z     vdW  Elec       q    Type
REMARK                         _______ _______ _______ _____ _____    ______ ____
ROOT
ATOM      1  O   UNL     1       2.105   1.436   0.000  0.00  0.00    -0.284 OA
ATOM      2  C   UNL     1       3.277   0.501   0.000  0.00  0.00    +0.220 A 
ATOM      3  C   UNL     1       2.944  -0.961   0.000  0.00  0.00    +0.054 A 
ATOM      4  C   UNL     1       3.879  -2.134   0.000  0.00  0.00    +0.004 A 
ATOM      5  C   UNL     1       5.379  -2.134   0.000  0.00  0.00    +0.004 A 
ATOM      6  C   UNL     1       6.314  -0.961   0.000  0.00  0.00    -0.041 A 
ATOM     10  C   UNL     1       5.980   0.501   0.000  0.00  0.00    +0.053 A 
ATOM     11  C   UNL     1       4.629   1.152   0.000  0.00  0.00    +0.164 A 
ENDROOT
BRANCH   6   7
ATOM      7  C   UNL     1       7.777  -1.295   0.000  0.00  0.00    +0.013 C 
ATOM      8  C   UNL     1       8.219  -2.728   0.000  0.00  0.00    +0.012 C 
ATOM      9  C   UNL     1       8.797  -0.196   0.000  0.00  0.00    +0.012 C 
ENDBRANCH   6   7
BRANCH  11  12
ATOM     12  O   UNL     1       4.629   2.652   0.000  0.00  0.00    -0.503 OA
ATOM     13  H   UNL     1       5.440   3.120   0.000  0.00  0.00    +0.292 HD
ENDBRANCH  11  12
TORSDOF 2