REMARK  Name = 22194
REMARK  2 active torsions:
REMARK  status: ('A' for Active; 'I' for Inactive)
REMARK    1  A    between atoms: C_4  and  O_22
REMARK    2  A    between atoms: C_5  and  C_21
REMARK                            x       y       z     vdW  Elec       q    Type
REMARK                         _______ _______ _______ _____ _____    ______ ____
ROOT
ATOM      1  C   UNL     1      -2.714  -6.077   0.000  0.00  0.00    +0.023 C 
ATOM      2  C   UNL     1      -3.718  -7.191   0.000  0.00  0.00    -0.041 A 
ATOM      3  C   UNL     1      -5.185  -6.880   0.000  0.00  0.00    +0.004 A 
ATOM      4  C   UNL     1      -6.189  -7.994   0.000  0.00  0.00    +0.000 A 
ATOM      5  C   UNL     1      -5.725  -9.421   0.000  0.00  0.00    +0.000 A 
ATOM      6  C   UNL     1      -4.258  -9.733   0.000  0.00  0.00    +0.004 A 
ATOM      7  C   UNL     1      -3.254  -8.618   0.000  0.00  0.00    -0.044 A 
ATOM      8  C   UNL     1      -1.787  -8.930   0.000  0.00  0.00    +0.036 C 
ATOM      9  C   UNL     1      -0.783  -7.815   0.000  0.00  0.00    +0.009 C 
ATOM     10  C   UNL     1      -1.247  -6.388   0.000  0.00  0.00    +0.000 C 
ATOM     11  C   UNL     1      -0.243  -5.274   0.000  0.00  0.00    +0.001 C 
ATOM     12  C   UNL     1       1.257  -5.274   0.000  0.00  0.00    +0.007 C 
ATOM     13  C   UNL     1       1.720  -3.847   0.000  0.00  0.00    +0.032 C 
ATOM     14  C   UNL     1       0.507  -2.966   0.000  0.00  0.00    +0.121 C 
ATOM     17  C   UNL     1      -0.707  -3.847   0.000  0.00  0.00    -0.003 C 
ATOM     18  C   UNL     1      -1.019  -2.380   0.000  0.00  0.00    +0.014 C 
ATOM     19  C   UNL     1      -2.174  -3.535   0.000  0.00  0.00    +0.010 C 
ATOM     20  C   UNL     1      -3.178  -4.650   0.000  0.00  0.00    +0.009 C 
ENDROOT
BRANCH  14  15
ATOM     15  O   UNL     1       0.507  -1.466   0.000  0.00  0.00    -0.391 OA
ATOM     16  H   UNL     1       1.347  -0.981   0.000  0.00  0.00    +0.210 HD
ENDBRANCH  14  15
TORSDOF 1