REMARK  Name = 19857
REMARK  15 active torsions:
REMARK  status: ('A' for Active; 'I' for Inactive)
REMARK    1  A    between atoms: C_6  and  C_27
REMARK    2  A    between atoms: C_9  and  C_29
REMARK    3  A    between atoms: C_10  and  O_30
REMARK    4  A    between atoms: C_14  and  C_27
REMARK    5  A    between atoms: C_17  and  O_19
REMARK    6  A    between atoms: O_19  and  C_20
REMARK    7  A    between atoms: C_20  and  C_21
REMARK    8  A    between atoms: C_21  and  N_22
REMARK    9  A    between atoms: N_22  and  C_23
REMARK   10  A    between atoms: N_22  and  C_25
REMARK   11  A    between atoms: C_23  and  C_24
REMARK   12  A    between atoms: C_25  and  C_26
REMARK   13  A    between atoms: C_27  and  O_28
REMARK   14  A    between atoms: C_27  and  C_29
REMARK   15  A    between atoms: O_30  and  C_31
REMARK                            x       y       z     vdW  Elec       q    Type
REMARK                         _______ _______ _______ _____ _____    ______ ____
ROOT
ATOM      5  C   UNL     1      12.000   2.250   0.000  0.00  0.00    +0.120 C 
ENDROOT
BRANCH   5   4
ATOM      1  C   UNL     1      12.000   6.750   0.000  0.00  0.00    +0.000 A 
ATOM      2  C   UNL     1      10.701   6.000   0.000  0.00  0.00    +0.000 A 
ATOM      3  C   UNL     1      10.701   4.500   0.000  0.00  0.00    +0.007 A 
ATOM      4  C   UNL     1      12.000   3.750   0.000  0.00  0.00    -0.011 A 
ATOM     31  C   UNL     1      13.299   4.500   0.000  0.00  0.00    +0.007 A 
ATOM     32  C   UNL     1      13.299   6.000   0.000  0.00  0.00    +0.000 A 
ENDBRANCH   5   4
BRANCH   5  17
ATOM     17  C   UNL     1      10.500   2.250   0.000  0.00  0.00    -0.011 A 
ATOM     18  C   UNL     1       9.750   0.951   0.000  0.00  0.00    +0.010 A 
ATOM     19  C   UNL     1       8.250   0.951   0.000  0.00  0.00    +0.046 A 
ATOM     20  C   UNL     1       7.500   2.250   0.000  0.00  0.00    +0.121 A 
ATOM     29  C   UNL     1       8.250   3.549   0.000  0.00  0.00    +0.046 A 
ATOM     30  C   UNL     1       9.750   3.549   0.000  0.00  0.00    +0.010 A 
BRANCH  20  21
ATOM     21  O   UNL     1       6.000   2.250   0.000  0.00  0.00    -0.491 OA
BRANCH  21  22
ATOM     22  C   UNL     1       5.250   3.549   0.000  0.00  0.00    +0.244 C 
BRANCH  22  23
ATOM     23  C   UNL     1       3.750   3.549   0.000  0.00  0.00    +0.125 C 
BRANCH  23  24
ATOM     24  N   UNL     1       3.000   4.848   0.000  0.00  0.00    -0.300 NA
BRANCH  24  25
ATOM     25  C   UNL     1       3.750   6.147   0.000  0.00  0.00    +0.081 C 
ATOM     26  C   UNL     1       5.250   6.147   0.000  0.00  0.00    +0.020 C 
ENDBRANCH  24  25
BRANCH  24  27
ATOM     27  C   UNL     1       1.500   4.848   0.000  0.00  0.00    +0.081 C 
ATOM     28  C   UNL     1       0.750   6.147   0.000  0.00  0.00    +0.020 C 
ENDBRANCH  24  27
ENDBRANCH  23  24
ENDBRANCH  22  23
ENDBRANCH  21  22
ENDBRANCH  20  21
ENDBRANCH   5  17
BRANCH   5  15
ATOM     15  O   UNL     1      12.000   0.750   0.000  0.00  0.00    -0.379 OA
ATOM     16  H   UNL     1      11.160   0.265   0.000  0.00  0.00    +0.211 HD
ENDBRANCH   5  15
BRANCH   5   6
ATOM      6  C   UNL     1      13.500   2.250   0.000  0.00  0.00    +0.079 C 
BRANCH   6   7
ATOM      7  C   UNL     1      14.250   0.951   0.000  0.00  0.00    -0.044 A 
ATOM      8  C   UNL     1      15.750   0.951   0.000  0.00  0.00    +0.007 A 
ATOM      9  C   UNL     1      16.500  -0.348   0.000  0.00  0.00    +0.046 A 
ATOM     10  C   UNL     1      15.750  -1.647   0.000  0.00  0.00    +0.120 A 
ATOM     13  C   UNL     1      14.250  -1.647   0.000  0.00  0.00    +0.046 A 
ATOM     14  C   UNL     1      13.500  -0.348   0.000  0.00  0.00    +0.007 A 
BRANCH  10  11
ATOM     11  O   UNL     1      16.500  -2.946   0.000  0.00  0.00    -0.495 OA
ATOM     12  C   UNL     1      15.750  -4.245   0.000  0.00  0.00    +0.277 C 
ENDBRANCH  10  11
ENDBRANCH   6   7
ENDBRANCH   5   6
TORSDOF 12