REMARK  Name = 39202
REMARK  4 active torsions:
REMARK  status: ('A' for Active; 'I' for Inactive)
REMARK    1  A    between atoms: N_1  and  C_20
REMARK    2  A    between atoms: N_3  and  C_21
REMARK    3  A    between atoms: C_5  and  C_21
REMARK    4  A    between atoms: C_6  and  C_20
REMARK                            x       y       z     vdW  Elec       q    Type
REMARK                         _______ _______ _______ _____ _____    ______ ____
ROOT
ATOM      3  C   UNL     1      -5.067   2.776   0.000  0.00  0.00    +0.070 C 
ATOM      4  C   UNL     1      -3.768   3.526   0.000  0.00  0.00    +0.012 C 
ATOM      5  C   UNL     1      -3.768   5.026   0.000  0.00  0.00    +0.001 C 
ATOM      6  C   UNL     1      -5.067   5.776   0.000  0.00  0.00    +0.012 C 
ATOM      7  C   UNL     1      -6.366   5.026   0.000  0.00  0.00    +0.070 C 
ATOM     15  C   UNL     1      -6.366   3.526   0.000  0.00  0.00    +0.142 C 
ATOM     16  O   UNL     1      -7.665   2.776   0.000  0.00  0.00    -0.297 OA
ENDROOT
BRANCH   3   2
ATOM      2  C   UNL     1      -5.067   1.276   0.000  0.00  0.00    +0.095 C 
BRANCH   2   1
ATOM      1  N   UNL     1      -6.366   0.526   0.000  0.00  0.00    -0.302 NA
ATOM     17  C   UNL     1      -6.366  -0.974   0.000  0.00  0.00    +0.084 C 
ATOM     18  C   UNL     1      -7.665  -1.724   0.000  0.00  0.00    +0.015 C 
ATOM     19  C   UNL     1      -8.964  -0.974   0.000  0.00  0.00    +0.002 C 
ATOM     20  C   UNL     1      -8.964   0.526   0.000  0.00  0.00    +0.015 C 
ATOM     21  C   UNL     1      -7.665   1.276   0.000  0.00  0.00    +0.084 C 
ENDBRANCH   2   1
ENDBRANCH   3   2
BRANCH   7   8
ATOM      8  C   UNL     1      -7.665   5.776   0.000  0.00  0.00    +0.095 C 
BRANCH   8   9
ATOM      9  N   UNL     1      -8.964   5.026   0.000  0.00  0.00    -0.302 NA
ATOM     10  C   UNL     1     -10.263   5.776   0.000  0.00  0.00    +0.084 C 
ATOM     11  C   UNL     1     -11.562   5.026   0.000  0.00  0.00    +0.015 C 
ATOM     12  C   UNL     1     -11.562   3.526   0.000  0.00  0.00    +0.002 C 
ATOM     13  C   UNL     1     -10.263   2.776   0.000  0.00  0.00    +0.015 C 
ATOM     14  C   UNL     1      -8.964   3.526   0.000  0.00  0.00    +0.084 C 
ENDBRANCH   8   9
ENDBRANCH   7   8
TORSDOF 4