REMARK  Name = 349155
REMARK  3 active torsions:
REMARK  status: ('A' for Active; 'I' for Inactive)
REMARK    1  A    between atoms: C_9  and  O_16
REMARK    2  A    between atoms: C_10  and  O_17
REMARK    3  A    between atoms: C_11  and  O_18
REMARK                            x       y       z     vdW  Elec       q    Type
REMARK                         _______ _______ _______ _____ _____    ______ ____
ROOT
ATOM      1  C   UNL     1      -3.348   8.250   0.000  0.00  0.00    +0.058 A 
ATOM      2  C   UNL     1      -3.348   9.750   0.000  0.00  0.00    +0.167 A 
ATOM      3  O   UNL     1      -2.233  10.754   0.000  0.00  0.00    -0.453 OA
ATOM      4  C   UNL     1      -2.844  12.124   0.000  0.00  0.00    +0.466 C 
ATOM      5  O   UNL     1      -4.335  11.967   0.000  0.00  0.00    -0.453 OA
ATOM      6  C   UNL     1      -4.647  10.500   0.000  0.00  0.00    +0.167 A 
ATOM      7  C   UNL     1      -5.946   9.750   0.000  0.00  0.00    +0.063 A 
ATOM      8  C   UNL     1      -5.946   8.250   0.000  0.00  0.00    +0.048 A 
ATOM      9  C   UNL     1      -7.245   7.500   0.000  0.00  0.00    +0.245 C 
ATOM     10  O   UNL     1      -8.544   8.250   0.000  0.00  0.00    -0.270 OA
ATOM     11  N   UNL     1      -7.245   6.000   0.000  0.00  0.00    -0.302 N 
ATOM     12  H   UNL     1      -8.544   5.250   0.000  0.00  0.00    +0.150 HD
ATOM     13  C   UNL     1      -5.946   5.250   0.000  0.00  0.00    +0.135 C 
ATOM     14  C   UNL     1      -4.647   6.000   0.000  0.00  0.00    -0.018 C 
ATOM     15  C   UNL     1      -3.348   5.250   0.000  0.00  0.00    +0.012 C 
ATOM     16  C   UNL     1      -3.348   3.750   0.000  0.00  0.00    +0.169 C 
ATOM     19  C   UNL     1      -4.647   3.000   0.000  0.00  0.00    +0.177 C 
ATOM     22  C   UNL     1      -5.946   3.750   0.000  0.00  0.00    +0.170 C 
ATOM     25  C   UNL     1      -4.647   7.500   0.000  0.00  0.00    -0.004 A 
ENDROOT
BRANCH  16  17
ATOM     17  O   UNL     1      -2.049   3.000   0.000  0.00  0.00    -0.385 OA
ATOM     18  H   UNL     1      -0.750   3.750   0.000  0.00  0.00    +0.210 HD
ENDBRANCH  16  17
BRANCH  19  20
ATOM     20  O   UNL     1      -4.647   1.500   0.000  0.00  0.00    -0.386 OA
ATOM     21  H   UNL     1      -3.348   0.750   0.000  0.00  0.00    +0.210 HD
ENDBRANCH  19  20
BRANCH  22  23
ATOM     23  O   UNL     1      -7.245   3.000   0.000  0.00  0.00    -0.387 OA
ATOM     24  H   UNL     1      -7.245   1.500   0.000  0.00  0.00    +0.210 HD
ENDBRANCH  22  23
TORSDOF 3