REMARK  Name = 175634
REMARK  2 active torsions:
REMARK  status: ('A' for Active; 'I' for Inactive)
REMARK    1  A    between atoms: C_14  and  C_16
REMARK    2  A    between atoms: C_18  and  C_19
REMARK                            x       y       z     vdW  Elec       q    Type
REMARK                         _______ _______ _______ _____ _____    ______ ____
ROOT
ATOM      1  H   UNL     1      -4.623  -3.535   0.000  0.00  0.00    +0.148 HD
ATOM      2  N   UNL     1      -4.623  -5.035   0.000  0.00  0.00    -0.321 N 
ATOM      3  C   UNL     1      -3.325  -5.785   0.000  0.00  0.00    +0.196 C 
ATOM     10  N   UNL     1      -3.325  -7.285   0.000  0.00  0.00    -0.289 N 
ATOM     11  H   UNL     1      -2.025  -8.035   0.000  0.00  0.00    +0.151 HD
ATOM     12  C   UNL     1      -4.623  -8.035   0.000  0.00  0.00    +0.247 C 
ATOM     13  C   UNL     1      -5.923  -7.285   0.000  0.00  0.00    +0.058 A 
ATOM     14  C   UNL     1      -7.222  -8.035   0.000  0.00  0.00    +0.015 A 
ATOM     15  C   UNL     1      -8.521  -7.285   0.000  0.00  0.00    +0.001 A 
ATOM     16  C   UNL     1      -8.521  -5.785   0.000  0.00  0.00    +0.002 A 
ATOM     17  C   UNL     1      -7.222  -5.035   0.000  0.00  0.00    +0.024 A 
ATOM     18  O   UNL     1      -4.623  -9.535   0.000  0.00  0.00    -0.270 OA
ATOM     19  C   UNL     1      -5.923  -5.785   0.000  0.00  0.00    +0.041 A 
ENDROOT
BRANCH   3   4
ATOM      4  C   UNL     1      -2.025  -5.035   0.000  0.00  0.00    +0.028 A 
ATOM      5  C   UNL     1      -0.655  -5.646   0.000  0.00  0.00    +0.015 A 
ATOM      6  C   UNL     1       0.349  -4.531   0.000  0.00  0.00    +0.011 A 
ATOM      7  C   UNL     1      -0.401  -3.232   0.000  0.00  0.00    -0.013 A 
ATOM      8  C   UNL     1       0.209  -1.861   0.000  0.00  0.00    +0.051 C 
ATOM      9  S   UNL     1      -1.869  -3.544   0.000  0.00  0.00    -0.095 S 
ENDBRANCH   3   4
TORSDOF 1