REMARK  Name = 305222
REMARK  10 active torsions:
REMARK  status: ('A' for Active; 'I' for Inactive)
REMARK    1  A    between atoms: C_2  and  O_34
REMARK    2  A    between atoms: C_3  and  C_28
REMARK    3  A    between atoms: C_10  and  C_26
REMARK    4  A    between atoms: C_11  and  C_36
REMARK    5  A    between atoms: C_13  and  O_19
REMARK    6  A    between atoms: C_16  and  O_33
REMARK    7  A    between atoms: C_16  and  C_35
REMARK    8  A    between atoms: O_19  and  C_29
REMARK    9  A    between atoms: C_20  and  C_26
REMARK   10  A    between atoms: C_29  and  C_31
REMARK                            x       y       z     vdW  Elec       q    Type
REMARK                         _______ _______ _______ _____ _____    ______ ____
ROOT
ATOM      1  C   UNL     1      -8.397   2.458   0.000  0.00  0.00    -0.045 C 
ATOM      2  C   UNL     1      -7.746   3.809   0.000  0.00  0.00    +0.010 C 
ATOM      3  C   UNL     1      -9.893   2.346   0.000  0.00  0.00    +0.020 C 
ATOM      4  C   UNL     1     -10.738   3.585   0.000  0.00  0.00    +0.012 C 
ATOM      5  C   UNL     1     -10.544   0.994   0.000  0.00  0.00    +0.036 C 
ATOM      6  C   UNL     1     -11.984   0.574   0.000  0.00  0.00    +0.082 C 
ATOM      7  N   UNL     1     -12.029  -0.926   0.000  0.00  0.00    -0.311 N 
ATOM      8  H   UNL     1     -12.842  -1.480   0.000  0.00  0.00    +0.149 HD
ATOM      9  C   UNL     1     -10.617  -1.432   0.000  0.00  0.00    +0.224 C 
ATOM     10  O   UNL     1     -10.452  -2.923   0.000  0.00  0.00    -0.275 OA
ATOM     18  C   UNL     1      -9.699  -0.245   0.000  0.00  0.00    +0.101 C 
ATOM     19  C   UNL     1     -10.350  -1.597   0.000  0.00  0.00    +0.215 C 
ATOM     24  C   UNL     1      -9.505  -2.836   0.000  0.00  0.00    +0.016 C 
ATOM     25  C   UNL     1      -8.009  -2.724   0.000  0.00  0.00    +0.006 C 
ATOM     26  C   UNL     1      -7.358  -4.075   0.000  0.00  0.00    +0.082 C 
ATOM     27  C   UNL     1      -7.358  -5.575   0.000  0.00  0.00    +0.046 C 
ATOM     30  C   UNL     1      -5.896  -4.409   0.000  0.00  0.00    +0.042 C 
ATOM     31  C   UNL     1      -4.723  -3.474   0.000  0.00  0.00    -0.007 C 
ATOM     32  C   UNL     1      -3.372  -4.125   0.000  0.00  0.00    +0.008 C 
ATOM     33  C   UNL     1      -4.723  -1.974   0.000  0.00  0.00    +0.030 C 
ATOM     34  C   UNL     1      -5.896  -1.039   0.000  0.00  0.00    -0.030 C 
ATOM     35  C   UNL     1      -7.358  -1.373   0.000  0.00  0.00    -0.024 C 
ATOM     36  C   UNL     1      -8.203  -0.133   0.000  0.00  0.00    +0.063 C 
ATOM     37  C   UNL     1      -7.552   1.218   0.000  0.00  0.00    +0.148 C 
ENDROOT
BRANCH  26  28
ATOM     28  O   UNL     1      -8.820  -4.409   0.000  0.00  0.00    -0.385 OA
ATOM     29  H   UNL     1      -9.480  -3.698   0.000  0.00  0.00    +0.211 HD
ENDBRANCH  26  28
BRANCH  37  38
ATOM     38  O   UNL     1      -6.056   1.330   0.000  0.00  0.00    -0.387 OA
ATOM     39  H   UNL     1      -5.510   0.529   0.000  0.00  0.00    +0.210 HD
ENDBRANCH  37  38
BRANCH   6  11
ATOM     11  C   UNL     1     -13.942   2.087   0.000  0.00  0.00    +0.057 C 
BRANCH  11  12
ATOM     12  C   UNL     1     -13.740   3.574   0.000  0.00  0.00    -0.046 A 
ATOM     13  C   UNL     1     -15.128   3.005   0.000  0.00  0.00    +0.004 A 
ATOM     14  C   UNL     1     -15.330   1.519   0.000  0.00  0.00    +0.000 A 
ATOM     15  C   UNL     1     -14.143   0.601   0.000  0.00  0.00    +0.000 A 
ATOM     16  C   UNL     1     -12.755   1.170   0.000  0.00  0.00    +0.000 A 
ATOM     17  C   UNL     1     -12.554   2.656   0.000  0.00  0.00    +0.004 A 
ENDBRANCH  11  12
ENDBRANCH   6  11
BRANCH  19  20
ATOM     20  O   UNL     1     -11.803  -1.967   0.000  0.00  0.00    -0.456 OA
BRANCH  20  21
ATOM     21  C   UNL     1     -12.210  -3.411   0.000  0.00  0.00    +0.305 C 
ATOM     22  C   UNL     1     -11.162  -4.485   0.000  0.00  0.00    +0.136 C 
ATOM     23  O   UNL     1     -13.663  -3.781   0.000  0.00  0.00    -0.251 OA
ENDBRANCH  20  21
ENDBRANCH  19  20
TORSDOF 6