REMARK  Name = 45383
REMARK  14 active torsions:
REMARK  status: ('A' for Active; 'I' for Inactive)
REMARK    1  A    between atoms: C_6  and  N_35
REMARK    2  A    between atoms: C_8  and  O_36
REMARK    3  A    between atoms: C_13  and  N_34
REMARK    4  A    between atoms: C_14  and  C_18
REMARK    5  A    between atoms: C_15  and  C_16
REMARK    6  A    between atoms: C_17  and  C_30
REMARK    7  A    between atoms: C_21  and  O_29
REMARK    8  A    between atoms: C_22  and  O_25
REMARK    9  A    between atoms: CA_23  and  C_31
REMARK   10  A    between atoms: C_24  and  O_27
REMARK   11  A    between atoms: O_25  and  C_26
REMARK   12  A    between atoms: O_27  and  C_28
REMARK   13  A    between atoms: C_31  and  OXT_33
REMARK   14  A    between atoms: O_36  and  C_37
REMARK                            x       y       z     vdW  Elec       q    Type
REMARK                         _______ _______ _______ _____ _____    ______ ____
ROOT
ATOM      1  N   UNL     1       4.821   6.649   0.000  0.00  0.00    -0.236 NA
ATOM      2  C   UNL     1       4.821   8.149   0.000  0.00  0.00    +0.111 A 
ATOM     20  C   UNL     1       3.522   8.899   0.000  0.00  0.00    +0.061 A 
ATOM     24  C   UNL     1       2.223   8.149   0.000  0.00  0.00    +0.014 A 
ATOM     37  C   UNL     1       2.223   6.649   0.000  0.00  0.00    -0.008 A 
ATOM     38  C   UNL     1       0.924   5.899   0.000  0.00  0.00    +0.047 C 
ATOM     39  CA  UNL     1       3.522   5.899   0.000  0.00  0.00    +0.152 A 
ENDROOT
BRANCH   2   3
ATOM      3  C   UNL     1       6.120   8.899   0.000  0.00  0.00    +0.092 A 
ATOM      4  C   UNL     1       7.419   8.149   0.000  0.00  0.00    +0.031 A 
ATOM      5  C   UNL     1       8.718   8.899   0.000  0.00  0.00    +0.016 A 
ATOM      6  C   UNL     1       8.718  10.400   0.000  0.00  0.00    +0.055 A 
ATOM      7  C   UNL     1      10.017  11.150   0.000  0.00  0.00    +0.231 C 
ATOM      8  C   UNL     1      10.017  12.650   0.000  0.00  0.00    +0.192 C 
ATOM     11  C   UNL     1       8.718  13.400   0.000  0.00  0.00    +0.120 C 
ATOM     15  C   UNL     1       7.419  12.650   0.000  0.00  0.00    +0.229 C 
ATOM     16  O   UNL     1       6.120  13.400   0.000  0.00  0.00    -0.284 OA
ATOM     17  O   UNL     1      11.316  10.400   0.000  0.00  0.00    -0.283 OA
ATOM     18  C   UNL     1       7.419  11.150   0.000  0.00  0.00    +0.124 A 
ATOM     19  N   UNL     1       6.120  10.400   0.000  0.00  0.00    -0.241 NA
BRANCH  11  12
ATOM     12  N   UNL     1       8.718  14.900   0.000  0.00  0.00    -0.352 N 
ATOM     13  H   UNL     1       7.866  15.392   0.000  0.00  0.00    +0.143 HD
ATOM     14  H   UNL     1       9.571  15.392   0.000  0.00  0.00    +0.143 HD
ENDBRANCH  11  12
BRANCH   8   9
ATOM      9  O   UNL     1      11.316  13.400   0.000  0.00  0.00    -0.490 OA
ATOM     10  C   UNL     1      11.316  14.900   0.000  0.00  0.00    +0.277 C 
ENDBRANCH   8   9
ENDBRANCH   2   3
BRANCH  24  25
ATOM     25  C   UNL     1       0.924   8.899   0.000  0.00  0.00    +0.030 A 
ATOM     26  C   UNL     1       0.924  10.400   0.000  0.00  0.00    +0.016 A 
ATOM     27  C   UNL     1      -0.375  11.150   0.000  0.00  0.00    +0.050 A 
ATOM     28  C   UNL     1      -1.674  10.400   0.000  0.00  0.00    +0.165 A 
ATOM     31  C   UNL     1      -1.674   8.899   0.000  0.00  0.00    +0.204 A 
ATOM     34  C   UNL     1      -0.375   8.149   0.000  0.00  0.00    +0.170 A 
BRANCH  28  29
ATOM     29  O   UNL     1      -2.973  11.150   0.000  0.00  0.00    -0.491 OA
ATOM     30  C   UNL     1      -2.973  12.650   0.000  0.00  0.00    +0.277 C 
ENDBRANCH  28  29
BRANCH  31  32
ATOM     32  O   UNL     1      -2.973   8.149   0.000  0.00  0.00    -0.488 OA
ATOM     33  C   UNL     1      -4.272   8.899   0.000  0.00  0.00    +0.277 C 
ENDBRANCH  31  32
BRANCH  34  35
ATOM     35  O   UNL     1      -0.375   6.649   0.000  0.00  0.00    -0.503 OA
ATOM     36  H   UNL     1      -1.186   6.181   0.000  0.00  0.00    +0.292 HD
ENDBRANCH  34  35
ENDBRANCH  24  25
BRANCH  20  21
ATOM     21  N   UNL     1       3.522  10.400   0.000  0.00  0.00    -0.356 N 
ATOM     22  H   UNL     1       2.669  10.892   0.000  0.00  0.00    +0.142 HD
ATOM     23  H   UNL     1       4.375  10.892   0.000  0.00  0.00    +0.142 HD
ENDBRANCH  20  21
BRANCH  39  40
ATOM     40  C   UNL     1       3.522   4.399   0.000  0.00  0.00    +0.356 C 
ATOM     43  O   UNL     1       2.223   3.650   0.000  0.00  0.00    -0.243 OA
BRANCH  40  41
ATOM     41  OXT UNL     1       4.821   3.650   0.000  0.00  0.00    -0.476 OA
ATOM     42  HXT UNL     1       4.821   2.713   0.000  0.00  0.00    +0.295 HD
ENDBRANCH  40  41
ENDBRANCH  39  40
TORSDOF 10