REMARK  Name = 129414
REMARK  12 active torsions:
REMARK  status: ('A' for Active; 'I' for Inactive)
REMARK    1  A    between atoms: C_8  and  O_26
REMARK    2  A    between atoms: C_10  and  O_28
REMARK    3  A    between atoms: C_14  and  C_31
REMARK    4  A    between atoms: C_16  and  C_32
REMARK    5  A    between atoms: C_17  and  C_31
REMARK    6  A    between atoms: C_20  and  O_34
REMARK    7  A    between atoms: C_21  and  O_36
REMARK    8  A    between atoms: O_26  and  C_27
REMARK    9  A    between atoms: O_28  and  C_29
REMARK   10  A    between atoms: C_32  and  C_33
REMARK   11  A    between atoms: O_34  and  C_35
REMARK   12  A    between atoms: O_36  and  C_37
REMARK                            x       y       z     vdW  Elec       q    Type
REMARK                         _______ _______ _______ _____ _____    ______ ____
ROOT
ATOM      1 CL   UNL     1      13.019   3.901   0.000  0.00  0.00    -0.145 Cl
ATOM      2  H   UNL     1      14.349   3.901   0.000  0.00  0.00    +0.145 HD
ENDROOT
TORSDOF 0