REMARK  Name = 267229
REMARK  16 active torsions:
REMARK  status: ('A' for Active; 'I' for Inactive)
REMARK    1  A    between atoms: C_4  and  C_36
REMARK    2  A    between atoms: O_5  and  C_22
REMARK    3  A    between atoms: O_5  and  C_23
REMARK    4  A    between atoms: C_6  and  O_28
REMARK    5  A    between atoms: C_13  and  O_40
REMARK    6  A    between atoms: C_13  and  C_41
REMARK    7  A    between atoms: C_19  and  O_29
REMARK    8  A    between atoms: C_21  and  O_31
REMARK    9  A    between atoms: C_25  and  N_33
REMARK   10  A    between atoms: C_26  and  C_32
REMARK   11  A    between atoms: C_27  and  O_30
REMARK   12  A    between atoms: N_33  and  C_34
REMARK   13  A    between atoms: N_33  and  C_35
REMARK   14  A    between atoms: C_36  and  O_38
REMARK   15  A    between atoms: O_38  and  C_39
REMARK   16  A    between atoms: C_41  and  C_42
REMARK                            x       y       z     vdW  Elec       q    Type
REMARK                         _______ _______ _______ _____ _____    ______ ____
ROOT
ATOM      1  O   UNL     1       6.221   4.774   0.000  0.00  0.00    -0.286 OA
ATOM      2  C   UNL     1       6.221   3.275   0.000  0.00  0.00    +0.198 C 
ATOM      3  C   UNL     1       7.520   2.525   0.000  0.00  0.00    +0.037 A 
ATOM      4  C   UNL     1       7.520   1.025   0.000  0.00  0.00    +0.075 A 
ATOM      5  C   UNL     1       6.221   0.275   0.000  0.00  0.00    +0.202 C 
ATOM      6  C   UNL     1       4.922   1.025   0.000  0.00  0.00    +0.078 A 
ATOM      7  C   UNL     1       3.623   0.275   0.000  0.00  0.00    +0.129 A 
ATOM     10  C   UNL     1       2.324   1.025   0.000  0.00  0.00    +0.050 A 
ATOM     11  C   UNL     1       2.324   2.525   0.000  0.00  0.00    +0.050 A 
ATOM     12  C   UNL     1       3.623   3.275   0.000  0.00  0.00    +0.129 A 
ATOM     15  O   UNL     1       6.221  -1.226   0.000  0.00  0.00    -0.286 OA
ATOM     16  C   UNL     1       8.819   0.275   0.000  0.00  0.00    +0.134 A 
ATOM     19  C   UNL     1      10.118   1.025   0.000  0.00  0.00    +0.028 A 
ATOM     20  C   UNL     1      11.417   0.275   0.000  0.00  0.00    +0.158 C 
ATOM     21  C   UNL     1      12.716   1.025   0.000  0.00  0.00    +0.072 C 
ATOM     22  C   UNL     1      12.716   2.525   0.000  0.00  0.00    +0.085 C 
ATOM     27  C   UNL     1      11.417   3.275   0.000  0.00  0.00    +0.160 C 
ATOM     45  C   UNL     1      10.118   2.525   0.000  0.00  0.00    -0.021 A 
ATOM     46  C   UNL     1       8.819   3.275   0.000  0.00  0.00    +0.017 A 
ATOM     47  C   UNL     1       4.922   2.525   0.000  0.00  0.00    +0.078 A 
ENDROOT
BRANCH   7   8
ATOM      8  O   UNL     1       3.623  -1.226   0.000  0.00  0.00    -0.506 OA
ATOM      9  H   UNL     1       2.811  -1.694   0.000  0.00  0.00    +0.292 HD
ENDBRANCH   7   8
BRANCH  12  13
ATOM     13  O   UNL     1       3.623   4.774   0.000  0.00  0.00    -0.506 OA
ATOM     14  H   UNL     1       4.434   5.243   0.000  0.00  0.00    +0.292 HD
ENDBRANCH  12  13
BRANCH  16  17
ATOM     17  O   UNL     1       8.819  -1.225   0.000  0.00  0.00    -0.506 OA
ATOM     18  H   UNL     1       8.007  -1.694   0.000  0.00  0.00    +0.292 HD
ENDBRANCH  16  17
BRANCH  22  23
ATOM     23  C   UNL     1      13.229   3.934   0.000  0.00  0.00    +0.032 C 
ATOM     24  C   UNL     1      14.706   4.195   0.000  0.00  0.00    +0.007 C 
ENDBRANCH  22  23
BRANCH  22  25
ATOM     25  O   UNL     1      14.193   2.264   0.000  0.00  0.00    -0.387 OA
ATOM     26  H   UNL     1      14.525   1.353   0.000  0.00  0.00    +0.210 HD
ENDBRANCH  22  25
BRANCH  27  28
ATOM     28  C   UNL     1      11.417   4.775   0.000  0.00  0.00    +0.317 C 
ATOM     31  O   UNL     1      10.118   5.525   0.000  0.00  0.00    -0.250 OA
BRANCH  28  29
ATOM     29  O   UNL     1      12.716   5.525   0.000  0.00  0.00    -0.467 OA
ATOM     30  C   UNL     1      12.716   7.025   0.000  0.00  0.00    +0.280 C 
ENDBRANCH  28  29
ENDBRANCH  27  28
BRANCH  20  32
ATOM     32  O   UNL     1      11.417  -1.225   0.000  0.00  0.00    -0.343 OA
BRANCH  32  33
ATOM     33  C   UNL     1      12.716  -1.975   0.000  0.00  0.00    +0.253 C 
ATOM     34  C   UNL     1      14.015  -1.225   0.000  0.00  0.00    +0.083 C 
ATOM     35  C   UNL     1      15.314  -1.975   0.000  0.00  0.00    +0.092 C 
ATOM     39  C   UNL     1      15.314  -3.475   0.000  0.00  0.00    +0.160 C 
ATOM     42  C   UNL     1      14.015  -4.225   0.000  0.00  0.00    +0.148 C 
ATOM     43  C   UNL     1      14.015  -2.725   0.000  0.00  0.00    +0.041 C 
ATOM     44  O   UNL     1      12.716  -3.475   0.000  0.00  0.00    -0.346 OA
BRANCH  35  36
ATOM     36  N   UNL     1      16.613  -1.225   0.000  0.00  0.00    -0.303 NA
ATOM     37  C   UNL     1      16.613   0.275   0.000  0.00  0.00    +0.105 C 
ATOM     38  C   UNL     1      17.912  -1.975   0.000  0.00  0.00    +0.105 C 
ENDBRANCH  35  36
BRANCH  39  40
ATOM     40  O   UNL     1      16.613  -4.225   0.000  0.00  0.00    -0.388 OA
ATOM     41  H   UNL     1      16.613  -5.195   0.000  0.00  0.00    +0.210 HD
ENDBRANCH  39  40
ENDBRANCH  32  33
ENDBRANCH  20  32
TORSDOF 11