REMARK  Name = 33006
REMARK  3 active torsions:
REMARK  status: ('A' for Active; 'I' for Inactive)
REMARK    1  A    between atoms: C_4  and  N_18
REMARK    2  A    between atoms: C_5  and  C_6
REMARK    3  A    between atoms: C_16  and  C_19
REMARK                            x       y       z     vdW  Elec       q    Type
REMARK                         _______ _______ _______ _____ _____    ______ ____
ROOT
ATOM      1  C   UNL     1      -5.250  -2.049   0.000  0.00  0.00    +0.024 A 
ATOM      2  C   UNL     1      -4.500  -3.348   0.000  0.00  0.00    +0.033 A 
ATOM      8  C   UNL     1      -5.250  -4.647   0.000  0.00  0.00    +0.024 A 
ATOM      9  C   UNL     1      -6.750  -4.647   0.000  0.00  0.00    +0.012 A 
ATOM     10  C   UNL     1      -7.500  -3.348   0.000  0.00  0.00    +0.007 A 
ATOM     20  C   UNL     1      -6.750  -2.049   0.000  0.00  0.00    +0.012 A 
ENDROOT
BRANCH  10  11
ATOM     11  C   UNL     1      -9.000  -3.348   0.000  0.00  0.00    +0.109 A 
ATOM     12  S   UNL     1      -9.882  -4.562   0.000  0.00  0.00    -0.067 S 
ATOM     13  C   UNL     1     -11.308  -4.098   0.000  0.00  0.00    +0.040 A 
ATOM     14  C   UNL     1     -12.607  -4.848   0.000  0.00  0.00    +0.017 A 
ATOM     15  C   UNL     1     -13.906  -4.098   0.000  0.00  0.00    +0.001 A 
ATOM     16  C   UNL     1     -13.906  -2.598   0.000  0.00  0.00    +0.002 A 
ATOM     17  C   UNL     1     -12.607  -1.848   0.000  0.00  0.00    +0.029 A 
ATOM     18  C   UNL     1     -11.308  -2.598   0.000  0.00  0.00    +0.079 A 
ATOM     19  N   UNL     1      -9.882  -2.135   0.000  0.00  0.00    -0.239 NA
ENDBRANCH  10  11
BRANCH   2   3
ATOM      3  N   UNL     1      -3.000  -3.348   0.000  0.00  0.00    -0.286 N 
ATOM      4  H   UNL     1      -2.508  -4.201   0.000  0.00  0.00    +0.155 HD
ATOM      5  C   UNL     1      -2.250  -2.049   0.000  0.00  0.00    +0.214 C 
ATOM      6  C   UNL     1      -0.750  -2.049   0.000  0.00  0.00    +0.109 C 
ATOM      7  O   UNL     1      -3.000  -0.750   0.000  0.00  0.00    -0.276 OA
ENDBRANCH   2   3
TORSDOF 2