REMARK  Name = 305819
REMARK  14 active torsions:
REMARK  status: ('A' for Active; 'I' for Inactive)
REMARK    1  A    between atoms: P_1  and  O_2
REMARK    2  A    between atoms: P_1  and  O_3
REMARK    3  A    between atoms: P_1  and  O_5
REMARK    4  A    between atoms: C_8  and  C_20
REMARK    5  A    between atoms: C_13  and  C_24
REMARK    6  A    between atoms: C_15  and  C_16
REMARK    7  A    between atoms: C_16  and  C_17
REMARK    8  A    between atoms: C_16  and  O_32
REMARK    9  A    between atoms: C_17  and  C_18
REMARK   10  A    between atoms: C_18  and  N_28
REMARK   11  A    between atoms: C_19  and  N_28
REMARK   12  A    between atoms: C_19  and  C_29
REMARK   13  A    between atoms: C_19  and  C_30
REMARK   14  A    between atoms: C_19  and  C_31
REMARK                            x       y       z     vdW  Elec       q    Type
REMARK                         _______ _______ _______ _____ _____    ______ ____
ROOT
ATOM      1  C   UNL     1       0.660   8.747   0.000  0.00  0.00    +0.001 A 
ATOM      2  C   UNL     1       1.959   9.497   0.000  0.00  0.00    +0.010 A 
ATOM      3  C   UNL     1       3.258   8.747   0.000  0.00  0.00    +0.007 A 
ATOM      4  C   UNL     1       4.557   9.497   0.000  0.00  0.00    -0.008 A 
ATOM     16  C   UNL     1       5.856   8.747   0.000  0.00  0.00    +0.039 A 
ATOM     17  C   UNL     1       5.856   7.247   0.000  0.00  0.00    +0.145 A 
ATOM     22  N   UNL     1       4.557   6.497   0.000  0.00  0.00    -0.242 NA
ATOM     23  C   UNL     1       3.258   7.247   0.000  0.00  0.00    +0.084 A 
ATOM     24  C   UNL     1       1.959   6.497   0.000  0.00  0.00    +0.081 A 
ATOM     29  C   UNL     1       0.660   7.247   0.000  0.00  0.00    +0.014 A 
ENDROOT
BRANCH  17  18
ATOM     18  C   UNL     1       7.155   6.497   0.000  0.00  0.00    +0.434 C 
ATOM     19  F   UNL     1       8.454   5.747   0.000  0.00  0.00    -0.164 F 
ATOM     20  F   UNL     1       7.905   7.796   0.000  0.00  0.00    -0.164 F 
ATOM     21  F   UNL     1       6.405   5.198   0.000  0.00  0.00    -0.164 F 
ENDBRANCH  17  18
BRANCH  24  25
ATOM     25  C   UNL     1       1.959   4.997   0.000  0.00  0.00    +0.419 C 
ATOM     26  F   UNL     1       3.459   4.997   0.000  0.00  0.00    -0.166 F 
ATOM     27  F   UNL     1       1.959   3.497   0.000  0.00  0.00    -0.166 F 
ATOM     28  F   UNL     1       0.459   4.997   0.000  0.00  0.00    -0.166 F 
ENDBRANCH  24  25
BRANCH   4   5
ATOM      5  C   UNL     1       4.557  10.997   0.000  0.00  0.00    +0.146 C 
BRANCH   5   6
ATOM      6  O   UNL     1       3.258  11.747   0.000  0.00  0.00    -0.387 OA
ATOM      7  H   UNL     1       3.258  12.717   0.000  0.00  0.00    +0.210 HD
ENDBRANCH   5   6
BRANCH   5   8
ATOM      8  C   UNL     1       5.856  11.747   0.000  0.00  0.00    +0.051 C 
BRANCH   8   9
ATOM      9  C   UNL     1       7.155  10.997   0.000  0.00  0.00    +0.084 C 
BRANCH   9  10
ATOM     10  N   UNL     1       8.454  11.747   0.000  0.00  0.00    -0.311 NA
ATOM     11  H   UNL     1       8.454  12.767   0.000  0.00  0.00    +0.122 HD
BRANCH  10  12
ATOM     12  C   UNL     1       9.753  10.997   0.000  0.00  0.00    +0.011 C 
ATOM     13  C   UNL     1       9.753   9.497   0.000  0.00  0.00    +0.027 C 
ATOM     14  C   UNL     1      11.052  10.247   0.000  0.00  0.00    +0.027 C 
ATOM     15  C   UNL     1      11.052  11.747   0.000  0.00  0.00    +0.027 C 
ENDBRANCH  10  12
ENDBRANCH   9  10
ENDBRANCH   8   9
ENDBRANCH   5   8
ENDBRANCH   4   5
TORSDOF 8