REMARK  Name = 40341
REMARK  2 active torsions:
REMARK  status: ('A' for Active; 'I' for Inactive)
REMARK    1  A    between atoms: N_4  and  C_22
REMARK    2  A    between atoms: N_5  and  C_11
REMARK                            x       y       z     vdW  Elec       q    Type
REMARK                         _______ _______ _______ _____ _____    ______ ____
ROOT
ATOM     14  N   UNL     1      -7.419  -8.149   0.000  0.00  0.00    -0.323 N 
ATOM     15  C   UNL     1      -6.120  -8.899   0.000  0.00  0.00    +0.124 C 
ATOM     16  C   UNL     1      -4.821  -8.149   0.000  0.00  0.00    +0.124 C 
ATOM     17  N   UNL     1      -4.821  -6.649   0.000  0.00  0.00    -0.323 N 
ATOM     18  C   UNL     1      -6.120  -5.899   0.000  0.00  0.00    +0.124 C 
ATOM     32  C   UNL     1      -7.419  -6.649   0.000  0.00  0.00    +0.124 C 
ENDROOT
BRANCH  14  13
ATOM      1  O   UNL     1     -10.017  -6.649   0.000  0.00  0.00    -0.285 OA
ATOM      2  C   UNL     1     -10.017  -8.149   0.000  0.00  0.00    +0.209 C 
ATOM      3  C   UNL     1     -11.316  -8.900   0.000  0.00  0.00    +0.034 A 
ATOM      4  C   UNL     1     -12.615  -8.150   0.000  0.00  0.00    +0.012 A 
ATOM      5  C   UNL     1     -13.914  -8.900   0.000  0.00  0.00    +0.001 A 
ATOM      6  C   UNL     1     -13.914 -10.400   0.000  0.00  0.00    +0.001 A 
ATOM      7  C   UNL     1     -12.615 -11.150   0.000  0.00  0.00    +0.012 A 
ATOM      8  C   UNL     1     -11.316 -10.400   0.000  0.00  0.00    +0.034 A 
ATOM      9  C   UNL     1     -10.017 -11.150   0.000  0.00  0.00    +0.207 C 
ATOM     10  C   UNL     1      -8.718 -10.400   0.000  0.00  0.00    +0.113 C 
ATOM     11 CL   UNL     1      -7.419 -11.150   0.000  0.00  0.00    -0.078 Cl
ATOM     12  O   UNL     1     -10.017 -12.650   0.000  0.00  0.00    -0.286 OA
ATOM     13  C   UNL     1      -8.718  -8.899   0.000  0.00  0.00    +0.100 C 
ENDBRANCH  14  13
BRANCH  17  19
ATOM     19  C   UNL     1      -3.522  -5.899   0.000  0.00  0.00    +0.100 C 
ATOM     20  C   UNL     1      -2.223  -6.649   0.000  0.00  0.00    +0.113 C 
ATOM     21  C   UNL     1      -0.924  -5.899   0.000  0.00  0.00    +0.207 C 
ATOM     22  C   UNL     1      -0.924  -4.399   0.000  0.00  0.00    +0.034 A 
ATOM     23  C   UNL     1       0.375  -3.650   0.000  0.00  0.00    +0.012 A 
ATOM     24  C   UNL     1       0.375  -2.150   0.000  0.00  0.00    +0.001 A 
ATOM     25  C   UNL     1      -0.924  -1.400   0.000  0.00  0.00    +0.001 A 
ATOM     26  C   UNL     1      -2.223  -2.150   0.000  0.00  0.00    +0.012 A 
ATOM     27  C   UNL     1      -2.223  -3.650   0.000  0.00  0.00    +0.034 A 
ATOM     28  O   UNL     1       0.375  -6.649   0.000  0.00  0.00    -0.286 OA
ATOM     29 CL   UNL     1      -2.223  -8.149   0.000  0.00  0.00    -0.078 Cl
ATOM     30  C   UNL     1      -3.522  -4.399   0.000  0.00  0.00    +0.209 C 
ATOM     31  O   UNL     1      -4.821  -3.650   0.000  0.00  0.00    -0.285 OA
ENDBRANCH  17  19
TORSDOF 2