REMARK  Name = 126728
REMARK  4 active torsions:
REMARK  status: ('A' for Active; 'I' for Inactive)
REMARK    1  A    between atoms: C_14  and  C_36
REMARK    2  A    between atoms: C_18  and  C_38
REMARK    3  A    between atoms: C_32  and  O_37
REMARK    4  A    between atoms: C_33  and  C_39
REMARK                            x       y       z     vdW  Elec       q    Type
REMARK                         _______ _______ _______ _____ _____    ______ ____
ROOT
ATOM      1  C   UNL     1      -0.267  -1.203   0.000  0.00  0.00    -0.000 C 
ENDROOT
TORSDOF 0