REMARK  Name = 169779
REMARK  4 active torsions:
REMARK  status: ('A' for Active; 'I' for Inactive)
REMARK    1  A    between atoms: N_3  and  C_18
REMARK    2  A    between atoms: C_5  and  N_6
REMARK    3  A    between atoms: C_5  and  C_18
REMARK    4  A    between atoms: C_5  and  C_19
REMARK                            x       y       z     vdW  Elec       q    Type
REMARK                         _______ _______ _______ _____ _____    ______ ____
ROOT
ATOM      9  C   UNL     1       2.873   7.024   0.000  0.00  0.00    +0.069 C 
ATOM     10  C   UNL     1       2.123   8.324   0.000  0.00  0.00    +0.025 C 
ENDROOT
BRANCH   9  11
ATOM     11  N   UNL     1       4.172   7.774   0.000  0.00  0.00    -0.282 NA
ATOM     12  C   UNL     1       5.471   7.024   0.000  0.00  0.00    +0.181 C 
ATOM     13  C   UNL     1       6.770   7.774   0.000  0.00  0.00    +0.233 C 
ATOM     14  N   UNL     1       6.770   9.274   0.000  0.00  0.00    -0.254 N 
ATOM     15  H   UNL     1       7.622   9.767   0.000  0.00  0.00    +0.158 HD
ATOM     16  C   UNL     1       5.471  10.025   0.000  0.00  0.00    +0.233 C 
ATOM     17  O   UNL     1       5.471  11.525   0.000  0.00  0.00    -0.274 OA
ATOM     18  O   UNL     1       8.069   7.024   0.000  0.00  0.00    -0.274 OA
ATOM     19  C   UNL     1       4.172   9.274   0.000  0.00  0.00    +0.181 C 
ENDBRANCH   9  11
BRANCH   9   8
ATOM      8  C   UNL     1       2.873   5.524   0.000  0.00  0.00    +0.104 C 
BRANCH   8   7
ATOM      1  O   UNL     1      -2.324   5.524   0.000  0.00  0.00    -0.274 OA
ATOM      2  C   UNL     1      -1.025   4.774   0.000  0.00  0.00    +0.233 C 
ATOM      3  N   UNL     1      -1.025   3.275   0.000  0.00  0.00    -0.254 N 
ATOM      4  H   UNL     1      -1.877   2.782   0.000  0.00  0.00    +0.158 HD
ATOM      5  C   UNL     1       0.275   2.525   0.000  0.00  0.00    +0.233 C 
ATOM      6  C   UNL     1       1.574   3.275   0.000  0.00  0.00    +0.181 C 
ATOM      7  N   UNL     1       1.574   4.774   0.000  0.00  0.00    -0.284 NA
ATOM     20  O   UNL     1       0.275   1.025   0.000  0.00  0.00    -0.274 OA
ATOM     21  C   UNL     1       0.275   5.524   0.000  0.00  0.00    +0.181 C 
ENDBRANCH   8   7
ENDBRANCH   9   8
TORSDOF 3