REMARK  Name = 45388
REMARK  5 active torsions:
REMARK  status: ('A' for Active; 'I' for Inactive)
REMARK    1  A    between atoms: N_4  and  C_6
REMARK    2  A    between atoms: C_5  and  C_8
REMARK    3  A    between atoms: N_11  and  N_12
REMARK    4  A    between atoms: N_12  and  C_13
REMARK    5  A    between atoms: N_12  and  C_14
REMARK                            x       y       z     vdW  Elec       q    Type
REMARK                         _______ _______ _______ _____ _____    ______ ____
ROOT
ATOM      1  N   UNL     1      -5.683  -7.461   0.000  0.00  0.00    -0.229 NA
ATOM      2  C   UNL     1      -5.371  -5.994   0.000  0.00  0.00    +0.171 A 
ATOM      8  C   UNL     1      -3.879  -5.837   0.000  0.00  0.00    +0.186 A 
ATOM     14  N   UNL     1      -3.269  -7.207   0.000  0.00  0.00    -0.328 N 
ATOM     15  H   UNL     1      -1.802  -7.519   0.000  0.00  0.00    +0.168 HD
ATOM     16  C   UNL     1      -4.383  -8.211   0.000  0.00  0.00    +0.199 A 
ENDROOT
BRANCH   2   3
ATOM      3  C   UNL     1      -6.374  -4.879   0.000  0.00  0.00    +0.264 C 
ATOM      4  N   UNL     1      -5.911  -3.453   0.000  0.00  0.00    -0.324 N 
ATOM      5  H   UNL     1      -6.570  -2.721   0.000  0.00  0.00    +0.145 HD
ATOM      6  H   UNL     1      -4.948  -3.248   0.000  0.00  0.00    +0.145 HD
ATOM      7  O   UNL     1      -7.841  -5.191   0.000  0.00  0.00    -0.269 OA
ENDBRANCH   2   3
BRANCH   8   9
ATOM      9  N   UNL     1      -3.129  -4.538   0.000  0.00  0.00    -0.113 NA
ATOM     10  N   UNL     1      -1.629  -4.538   0.000  0.00  0.00    -0.078 NA
BRANCH  10  11
ATOM     11  N   UNL     1      -0.879  -3.239   0.000  0.00  0.00    -0.243 N 
ATOM     12  C   UNL     1      -1.629  -1.940   0.000  0.00  0.00    +0.153 C 
ATOM     13  C   UNL     1       0.621  -3.239   0.000  0.00  0.00    +0.153 C 
ENDBRANCH  10  11
ENDBRANCH   8   9
TORSDOF 3