REMARK  Name = 269142
REMARK  6 active torsions:
REMARK  status: ('A' for Active; 'I' for Inactive)
REMARK    1  A    between atoms: C_2  and  C_19
REMARK    2  A    between atoms: C_4  and  C_20
REMARK    3  A    between atoms: C_9  and  O_21
REMARK    4  A    between atoms: C_11  and  C_17
REMARK    5  A    between atoms: C_16  and  O_22
REMARK    6  A    between atoms: O_18  and  C_19
REMARK                            x       y       z     vdW  Elec       q    Type
REMARK                         _______ _______ _______ _____ _____    ______ ____
ROOT
ATOM      1  C   UNL     1       6.042   2.603   0.000  0.00  0.00    +0.151 C 
ATOM      2  C   UNL     1       6.062   1.103   0.000  0.00  0.00    +0.034 C 
ATOM      6  C   UNL     1       7.246   0.183   0.000  0.00  0.00    +0.040 C 
ATOM      7  C   UNL     1       6.931  -1.284   0.000  0.00  0.00    +0.017 C 
ATOM      8  C   UNL     1       8.704   0.535   0.000  0.00  0.00    +0.155 C 
ATOM     11  C   UNL     1       9.338   1.895   0.000  0.00  0.00    +0.175 C 
ATOM     14  C   UNL     1       7.871   2.210   0.000  0.00  0.00    +0.185 C 
ATOM     15  C   UNL     1       7.166   3.684   0.000  0.00  0.00    +0.130 C 
ATOM     16  C   UNL     1       5.628   4.192   0.000  0.00  0.00    +0.199 C 
ATOM     17  O   UNL     1       5.871   2.712   0.000  0.00  0.00    -0.365 OA
ATOM     18  C   UNL     1       4.772   0.336   0.000  0.00  0.00    +0.017 C 
ATOM     19  C   UNL     1       3.464   1.069   0.000  0.00  0.00    +0.031 C 
ATOM     20  C   UNL     1       3.444   2.569   0.000  0.00  0.00    -0.074 C 
ATOM     21  C   UNL     1       2.136   3.303   0.000  0.00  0.00    +0.039 C 
ATOM     22  O   UNL     1       7.203   3.553   0.000  0.00  0.00    -0.363 OA
ATOM     23  C   UNL     1       4.734   3.336   0.000  0.00  0.00    +0.004 C 
ENDROOT
BRANCH   8   9
ATOM      9  O   UNL     1       9.655  -0.625   0.000  0.00  0.00    -0.388 OA
ATOM     10  H   UNL     1       9.312  -1.533   0.000  0.00  0.00    +0.210 HD
ENDBRANCH   8   9
BRANCH  11  12
ATOM     12  O   UNL     1      10.681   2.563   0.000  0.00  0.00    -0.387 OA
ATOM     13  H   UNL     1      11.489   2.027   0.000  0.00  0.00    +0.210 HD
ENDBRANCH  11  12
BRANCH   2   3
ATOM      3  C   UNL     1       5.969  -0.394   0.000  0.00  0.00    +0.166 C 
BRANCH   3   4
ATOM      4  O   UNL     1       4.626  -1.062   0.000  0.00  0.00    -0.394 OA
ATOM      5  H   UNL     1       3.817  -0.526   0.000  0.00  0.00    +0.209 HD
ENDBRANCH   3   4
ENDBRANCH   2   3
TORSDOF 4