REMARK  Name = 330753
REMARK  16 active torsions:
REMARK  status: ('A' for Active; 'I' for Inactive)
REMARK    1  A    between atoms: C_1  and  O_24
REMARK    2  A    between atoms: C_2  and  C_37
REMARK    3  A    between atoms: C_2  and  C_38
REMARK    4  A    between atoms: C_3  and  O_31
REMARK    5  A    between atoms: O_4  and  C_15
REMARK    6  A    between atoms: O_4  and  C_35
REMARK    7  A    between atoms: C_8  and  O_44
REMARK    8  A    between atoms: C_12  and  C_23
REMARK    9  A    between atoms: C_13  and  O_22
REMARK   10  A    between atoms: C_17  and  C_39
REMARK   11  A    between atoms: C_20  and  O_40
REMARK   12  A    between atoms: C_25  and  C_35
REMARK   13  A    between atoms: O_31  and  C_32
REMARK   14  A    between atoms: C_32  and  C_34
REMARK   15  A    between atoms: O_40  and  C_41
REMARK   16  A    between atoms: C_41  and  C_43
REMARK                            x       y       z     vdW  Elec       q    Type
REMARK                         _______ _______ _______ _____ _____    ______ ____
ROOT
ATOM      1  C   UNL     1       8.212  -2.842   0.000  0.00  0.00    +0.115 C 
ATOM      4  C   UNL     1       9.712  -2.842   0.000  0.00  0.00    +0.217 C 
ATOM      5  C   UNL     1      10.772  -1.781   0.000  0.00  0.00    +0.097 C 
ATOM      6  C   UNL     1      12.071  -2.531   0.000  0.00  0.00    +0.170 C 
ATOM     11  C   UNL     1      12.821  -3.830   0.000  0.00  0.00    +0.211 C 
ATOM     12  O   UNL     1      14.120  -3.080   0.000  0.00  0.00    -0.368 OA
ATOM     13  C   UNL     1      13.370  -1.781   0.000  0.00  0.00    +0.167 C 
ATOM     14  C   UNL     1      13.370  -0.281   0.000  0.00  0.00    +0.068 C 
ATOM     15  C   UNL     1      12.071   0.469   0.000  0.00  0.00    +0.131 C 
ATOM     18  C   UNL     1      10.772  -0.281   0.000  0.00  0.00    +0.066 C 
ATOM     19  C   UNL     1      10.968   1.206   0.000  0.00  0.00    +0.022 C 
ATOM     20  C   UNL     1       9.712   0.780   0.000  0.00  0.00    +0.187 C 
ATOM     21  O   UNL     1      10.286   2.166   0.000  0.00  0.00    -0.292 OA
ATOM     22  C   UNL     1       8.212   0.780   0.000  0.00  0.00    +0.269 C 
ATOM     27  C   UNL     1       7.151  -0.281   0.000  0.00  0.00    -0.012 C 
ATOM     28  C   UNL     1       5.896  -1.160   0.000  0.00  0.00    -0.041 C 
ATOM     29  C   UNL     1       4.624  -0.365   0.000  0.00  0.00    +0.042 C 
ATOM     30  C   UNL     1       5.662  -2.641   0.000  0.00  0.00    +0.143 C 
ATOM     42  C   UNL     1       6.875  -3.523   0.000  0.00  0.00    +0.075 C 
ATOM     43  C   UNL     1       8.212  -1.342   0.000  0.00  0.00    +0.023 C 
ATOM     44  C   UNL     1       8.962  -0.043   0.000  0.00  0.00    +0.018 C 
ATOM     45  C   UNL     1       9.661  -1.730   0.000  0.00  0.00    +0.018 C 
ENDROOT
BRANCH   1   2
ATOM      2  O   UNL     1       8.562  -4.300   0.000  0.00  0.00    -0.384 OA
ATOM      3  H   UNL     1       7.858  -4.968   0.000  0.00  0.00    +0.210 HD
ENDBRANCH   1   2
BRANCH  15  16
ATOM     16  O   UNL     1      12.071   1.969   0.000  0.00  0.00    -0.391 OA
ATOM     17  H   UNL     1      12.911   2.454   0.000  0.00  0.00    +0.210 HD
ENDBRANCH  15  16
BRANCH  30  31
ATOM     31  O   UNL     1       4.276  -3.215   0.000  0.00  0.00    -0.387 OA
ATOM     32  H   UNL     1       3.506  -2.624   0.000  0.00  0.00    +0.210 HD
ENDBRANCH  30  31
BRANCH   6   7
ATOM      7  O   UNL     1      11.683  -3.980   0.000  0.00  0.00    -0.453 OA
BRANCH   7   8
ATOM      8  C   UNL     1      12.744  -5.041   0.000  0.00  0.00    +0.305 C 
ATOM      9  C   UNL     1      12.355  -6.489   0.000  0.00  0.00    +0.136 C 
ATOM     10  O   UNL     1      14.193  -4.652   0.000  0.00  0.00    -0.251 OA
ENDBRANCH   7   8
ENDBRANCH   6   7
BRANCH  22  23
ATOM     23  O   UNL     1       7.638   2.166   0.000  0.00  0.00    -0.449 OA
BRANCH  23  24
ATOM     24  C   UNL     1       6.150   2.361   0.000  0.00  0.00    +0.305 C 
ATOM     25  C   UNL     1       5.237   1.171   0.000  0.00  0.00    +0.136 C 
ATOM     26  O   UNL     1       5.576   3.747   0.000  0.00  0.00    -0.251 OA
ENDBRANCH  23  24
ENDBRANCH  22  23
BRANCH   4  33
ATOM     33  O   UNL     1      10.286  -4.228   0.000  0.00  0.00    -0.454 OA
BRANCH  33  34
ATOM     34  C   UNL     1       9.373  -5.418   0.000  0.00  0.00    +0.340 C 
ATOM     35  O   UNL     1       7.885  -5.222   0.000  0.00  0.00    -0.245 OA
BRANCH  34  36
ATOM     36  C   UNL     1       9.947  -6.803   0.000  0.00  0.00    +0.059 A 
ATOM     37  C   UNL     1       8.459  -6.608   0.000  0.00  0.00    +0.015 A 
ATOM     38  C   UNL     1       7.885  -5.222   0.000  0.00  0.00    +0.001 A 
ATOM     39  C   UNL     1       8.798  -4.032   0.000  0.00  0.00    +0.000 A 
ATOM     40  C   UNL     1      10.286  -4.228   0.000  0.00  0.00    +0.001 A 
ATOM     41  C   UNL     1      10.860  -5.613   0.000  0.00  0.00    +0.015 A 
ENDBRANCH  34  36
ENDBRANCH  33  34
ENDBRANCH   4  33
TORSDOF 10