REMARK  Name = 282752
REMARK  4 active torsions:
REMARK  status: ('A' for Active; 'I' for Inactive)
REMARK    1  A    between atoms: C_1  and  C_20
REMARK    2  A    between atoms: C_8  and  C_21
REMARK    3  A    between atoms: C_8  and  O_23
REMARK    4  A    between atoms: C_10  and  C_22
REMARK                            x       y       z     vdW  Elec       q    Type
REMARK                         _______ _______ _______ _____ _____    ______ ____
ROOT
ATOM      1  C   UNL     1      -5.306   0.044   0.000  0.00  0.00    -0.077 C 
ATOM      2  C   UNL     1      -6.778   0.333   0.000  0.00  0.00    +0.039 C 
ATOM      3  C   UNL     1      -4.820  -1.375   0.000  0.00  0.00    -0.028 C 
ATOM      4  C   UNL     1      -3.348  -1.664   0.000  0.00  0.00    +0.030 C 
ATOM      5  C   UNL     1      -2.362  -0.534   0.000  0.00  0.00    +0.041 C 
ATOM      6  C   UNL     1      -0.890  -0.823   0.000  0.00  0.00    +0.090 C 
ATOM      9  C   UNL     1      -1.430  -2.222   0.000  0.00  0.00    +0.044 C 
ATOM     10  C   UNL     1       0.096   0.308   0.000  0.00  0.00    +0.151 C 
ATOM     11  C   UNL     1       1.226  -0.678   0.000  0.00  0.00    +0.046 C 
ATOM     12  C   UNL     1       2.645  -0.193   0.000  0.00  0.00    +0.071 C 
ATOM     13  C   UNL     1       3.956  -0.922   0.000  0.00  0.00    +0.036 C 
ATOM     14  C   UNL     1       4.136  -2.411   0.000  0.00  0.00    +0.020 C 
ATOM     15  C   UNL     1       5.055   0.099   0.000  0.00  0.00    +0.335 C 
ATOM     16  O   UNL     1       6.527  -0.190   0.000  0.00  0.00    -0.245 OA
ATOM     17  O   UNL     1       4.423   1.459   0.000  0.00  0.00    -0.455 OA
ATOM     18  C   UNL     1       2.934   1.279   0.000  0.00  0.00    +0.213 C 
ATOM     19  C   UNL     1       1.804   2.265   0.000  0.00  0.00    +0.163 C 
ATOM     20  C   UNL     1      -0.390   1.727   0.000  0.00  0.00    +0.018 C 
ATOM     21  C   UNL     1      -0.355   0.227   0.000  0.00  0.00    +0.010 C 
ATOM     22  C   UNL     1      -1.862   2.016   0.000  0.00  0.00    +0.006 C 
ATOM     23  C   UNL     1      -2.848   0.885   0.000  0.00  0.00    +0.005 C 
ATOM     24  O   UNL     1       1.515   0.793   0.000  0.00  0.00    -0.367 OA
ATOM     25  C   UNL     1      -4.320   1.174   0.000  0.00  0.00    +0.030 C 
ENDROOT
BRANCH   6   7
ATOM      7  O   UNL     1       0.394  -1.597   0.000  0.00  0.00    -0.386 OA
ATOM      8  H   UNL     1       0.375  -2.567   0.000  0.00  0.00    +0.210 HD
ENDBRANCH   6   7
TORSDOF 1