REMARK  Name = 47147
REMARK  10 active torsions:
REMARK  status: ('A' for Active; 'I' for Inactive)
REMARK    1  A    between atoms: C_6  and  C_26
REMARK    2  A    between atoms: C_7  and  C_21
REMARK    3  A    between atoms: C_10  and  C_20
REMARK    4  A    between atoms: C_11  and  O_18
REMARK    5  A    between atoms: C_13  and  C_14
REMARK    6  A    between atoms: O_18  and  C_19
REMARK    7  A    between atoms: C_21  and  C_22
REMARK    8  A    between atoms: C_22  and  C_23
REMARK    9  A    between atoms: C_23  and  C_24
REMARK   10  A    between atoms: C_24  and  C_25
REMARK                            x       y       z     vdW  Elec       q    Type
REMARK                         _______ _______ _______ _____ _____    ______ ____
ROOT
ATOM      7  C   UNL     1      -0.996  -6.143   0.000  0.00  0.00    +0.067 A 
ATOM      8  C   UNL     1       0.504  -6.140   0.000  0.00  0.00    +0.075 A 
ATOM      9  C   UNL     1       0.965  -4.713   0.000  0.00  0.00    +0.145 A 
ATOM     12  C   UNL     1      -0.251  -3.833   0.000  0.00  0.00    +0.084 A 
ATOM     25  N   UNL     1      -1.462  -4.717   0.000  0.00  0.00    -0.350 N 
ATOM     26  H   UNL     1      -2.890  -4.257   0.000  0.00  0.00    +0.166 HD
ENDROOT
BRANCH  12  13
ATOM     13  C   UNL     1      -0.254  -2.333   0.000  0.00  0.00    +0.057 C 
ATOM     14  C   UNL     1       1.044  -1.581   0.000  0.00  0.00    +0.067 C 
ATOM     15  C   UNL     1       2.416  -2.188   0.000  0.00  0.00    +0.033 C 
ATOM     16  C   UNL     1       3.417  -1.071   0.000  0.00  0.00    -0.024 C 
ATOM     22  C   UNL     1       2.664   0.226   0.000  0.00  0.00    +0.042 C 
ATOM     23  C   UNL     1       3.272   1.598   0.000  0.00  0.00    +0.066 C 
ATOM     24  N   UNL     1       1.198  -0.089   0.000  0.00  0.00    -0.252 NA
BRANCH  16  17
ATOM     17  C   UNL     1       4.909  -1.225   0.000  0.00  0.00    +0.037 C 
BRANCH  17  18
ATOM     18  C   UNL     1       5.788  -0.010   0.000  0.00  0.00    +0.005 C 
BRANCH  18  19
ATOM     19  C   UNL     1       5.176   1.359   0.000  0.00  0.00    +0.000 C 
BRANCH  19  20
ATOM     20  C   UNL     1       6.055   2.574   0.000  0.00  0.00    -0.003 C 
ATOM     21  C   UNL     1       5.442   3.943   0.000  0.00  0.00    +0.004 C 
ENDBRANCH  19  20
ENDBRANCH  18  19
ENDBRANCH  17  18
ENDBRANCH  16  17
ENDBRANCH  12  13
BRANCH   7   6
ATOM      1  H   UNL     1      -4.259  -6.149   0.000  0.00  0.00    +0.165 HD
ATOM      2  N   UNL     1      -3.375  -7.361   0.000  0.00  0.00    -0.360 N 
ATOM      3  C   UNL     1      -3.836  -8.789   0.000  0.00  0.00    +0.083 A 
ATOM      4  C   UNL     1      -2.621  -9.668   0.000  0.00  0.00    +0.019 A 
ATOM      5  C   UNL     1      -1.409  -8.784   0.000  0.00  0.00    +0.029 A 
ATOM      6  C   UNL     1      -1.875  -7.358   0.000  0.00  0.00    +0.063 A 
ENDBRANCH   7   6
BRANCH   9  10
ATOM     10  O   UNL     1       2.390  -4.246   0.000  0.00  0.00    -0.493 OA
ATOM     11  C   UNL     1       2.699  -2.778   0.000  0.00  0.00    +0.277 C 
ENDBRANCH   9  10
TORSDOF 7