REMARK  Name = 288010
REMARK  11 active torsions:
REMARK  status: ('A' for Active; 'I' for Inactive)
REMARK    1  A    between atoms: O_1  and  C_3
REMARK    2  A    between atoms: O_1  and  C_25
REMARK    3  A    between atoms: N_10  and  C_12
REMARK    4  A    between atoms: C_20  and  C_22
REMARK    5  A    between atoms: N_24  and  C_28
REMARK    6  A    between atoms: N_24  and  C_29
REMARK    7  A    between atoms: N_24  and  C_31
REMARK    8  A    between atoms: N_26  and  C_27
REMARK    9  A    between atoms: C_27  and  C_28
REMARK   10  A    between atoms: C_29  and  C_30
REMARK   11  A    between atoms: C_31  and  C_32
REMARK                            x       y       z     vdW  Elec       q    Type
REMARK                         _______ _______ _______ _____ _____    ______ ____
ROOT
ATOM      1 CL   UNL     1       7.675  11.176   0.000  0.00  0.00    -0.145 Cl
ATOM      2  H   UNL     1       9.005  11.176   0.000  0.00  0.00    +0.145 HD
ENDROOT
TORSDOF 0