REMARK  Name = 21548
REMARK  5 active torsions:
REMARK  status: ('A' for Active; 'I' for Inactive)
REMARK    1  A    between atoms: N1_4  and  C1*_9
REMARK    2  A    between atoms: C5_6  and  C5M_17
REMARK    3  A    between atoms: C3*_11  and  O3*_15
REMARK    4  A    between atoms: C4*_12  and  C5*_14
REMARK    5  A    between atoms: O5*_13  and  C5*_14
REMARK                            x       y       z     vdW  Elec       q    Type
REMARK                         _______ _______ _______ _____ _____    ______ ____
ROOT
ATOM      1  O2    T A   1       0.750  -5.250   0.000  0.00  0.00    -0.246 OA
ATOM      2  C2    T A   1       2.049  -4.500   0.000  0.00  0.00    +0.331 A 
ATOM      3  N3    T A   1       2.049  -3.000   0.000  0.00  0.00    -0.275 N 
ATOM      4  H3    T A   1       1.196  -2.508   0.000  0.00  0.00    +0.173 HD
ATOM      5  C4    T A   1       3.348  -2.250   0.000  0.00  0.00    +0.257 A 
ATOM      6  C5    T A   1       4.647  -3.000   0.000  0.00  0.00    +0.030 A 
ATOM      7  C5M   T A   1       5.946  -2.250   0.000  0.00  0.00    +0.051 C 
ATOM      8  C6    T A   1       4.647  -4.500   0.000  0.00  0.00    +0.101 A 
ATOM      9  O4    T A   1       3.348  -0.750   0.000  0.00  0.00    -0.267 OA
ATOM     10  N1    T A   1       3.348  -5.250   0.000  0.00  0.00    -0.274 N 
ENDROOT
BRANCH  10  11
ATOM     11  C1*   T A   1       3.348  -6.750   0.000  0.00  0.00    +0.226 C 
ATOM     12  C2*   T A   1       4.562  -7.632   0.000  0.00  0.00    +0.088 C 
ATOM     13  C3*   T A   1       4.098  -9.058   0.000  0.00  0.00    +0.150 C 
ATOM     16  C4*   T A   1       2.598  -9.058   0.000  0.00  0.00    +0.175 C 
ATOM     20  O4*   T A   1       2.135  -7.632   0.000  0.00  0.00    -0.348 OA
BRANCH  13  14
ATOM     14  O3*   T A   1       4.980 -10.272   0.000  0.00  0.00    -0.389 OA
ATOM     15  H3*   T A   1       4.585 -11.158   0.000  0.00  0.00    +0.210 HD
ENDBRANCH  13  14
BRANCH  16  17
ATOM     17  C5*   T A   1       1.716 -10.272   0.000  0.00  0.00    +0.190 C 
BRANCH  17  18
ATOM     18  O5*   T A   1       2.326 -11.642   0.000  0.00  0.00    -0.392 OA
ATOM     19  H5*   T A   1       1.756 -12.427   0.000  0.00  0.00    +0.210 HD
ENDBRANCH  17  18
ENDBRANCH  16  17
ENDBRANCH  10  11
TORSDOF 4