REMARK  Name = 363998
REMARK  16 active torsions:
REMARK  status: ('A' for Active; 'I' for Inactive)
REMARK    1  A    between atoms: C_4  and  N_24
REMARK    2  A    between atoms: C_14  and  N_25
REMARK    3  A    between atoms: C_17  and  N_18
REMARK    4  A    between atoms: C_17  and  C_22
REMARK    5  A    between atoms: N_18  and  C_19
REMARK    6  A    between atoms: C_19  and  C_20
REMARK    7  A    between atoms: C_20  and  C_21
REMARK    8  A    between atoms: C_21  and  N_24
REMARK    9  A    between atoms: C_22  and  O_23
REMARK   10  A    between atoms: N_25  and  C_26
REMARK   11  A    between atoms: C_26  and  C_27
REMARK   12  A    between atoms: C_27  and  C_28
REMARK   13  A    between atoms: C_28  and  N_29
REMARK   14  A    between atoms: N_29  and  C_30
REMARK   15  A    between atoms: C_30  and  C_31
REMARK   16  A    between atoms: C_31  and  O_32
REMARK                            x       y       z     vdW  Elec       q    Type
REMARK                         _______ _______ _______ _____ _____    ______ ____
ROOT
ATOM      1 CL   UNL     1       3.522 -13.400   0.000  0.00  0.00    -0.145 Cl
ATOM      2  H   UNL     1       4.852 -13.400   0.000  0.00  0.00    +0.145 HD
ENDROOT
TORSDOF 0