REMARK  Name = 113090
REMARK  10 active torsions:
REMARK  status: ('A' for Active; 'I' for Inactive)
REMARK    1  A    between atoms: C_1  and  C_28
REMARK    2  A    between atoms: C_5  and  C_31
REMARK    3  A    between atoms: C_10  and  C_30
REMARK    4  A    between atoms: C_13  and  C_27
REMARK    5  A    between atoms: C_14  and  C_24
REMARK    6  A    between atoms: C_19  and  O_22
REMARK    7  A    between atoms: C_21  and  C_23
REMARK    8  A    between atoms: C_21  and  C_25
REMARK    9  A    between atoms: C_28  and  C_29
REMARK   10  A    between atoms: C_31  and  O_33
REMARK                            x       y       z     vdW  Elec       q    Type
REMARK                         _______ _______ _______ _____ _____    ______ ____
ROOT
ATOM      1  C   UNL     1       2.890   3.409   0.000  0.00  0.00    +0.019 C 
ATOM      5  C   UNL     1       4.384   3.537   0.000  0.00  0.00    +0.009 C 
ATOM      6  C   UNL     1       4.967   2.155   0.000  0.00  0.00    +0.019 C 
ATOM      7  C   UNL     1       3.833   1.173   0.000  0.00  0.00    +0.071 C 
ATOM     12  C   UNL     1       3.804  -0.327   0.000  0.00  0.00    +0.019 C 
ATOM     13  C   UNL     1       2.490  -1.051   0.000  0.00  0.00    +0.008 C 
ATOM     14  C   UNL     1       1.206  -0.276   0.000  0.00  0.00    -0.023 C 
ATOM     15  C   UNL     1       1.177  -1.776   0.000  0.00  0.00    +0.012 C 
ATOM     16  C   UNL     1      -0.107  -1.000   0.000  0.00  0.00    -0.023 C 
ATOM     17  C   UNL     1       1.177  -1.776   0.000  0.00  0.00    +0.012 C 
ATOM     18  C   UNL     1      -0.137  -2.500   0.000  0.00  0.00    +0.008 C 
ATOM     19  C   UNL     1      -1.450  -3.224   0.000  0.00  0.00    +0.005 C 
ATOM     20  C   UNL     1      -2.734  -2.449   0.000  0.00  0.00    +0.003 C 
ATOM     21  C   UNL     1      -4.048  -3.173   0.000  0.00  0.00    -0.006 C 
ATOM     22  C   UNL     1      -3.106  -4.341   0.000  0.00  0.00    +0.014 C 
ATOM     23  C   UNL     1      -5.034  -4.303   0.000  0.00  0.00    +0.014 C 
ATOM     24  C   UNL     1      -5.332  -2.398   0.000  0.00  0.00    +0.120 C 
ATOM     27  C   UNL     1      -5.303  -0.898   0.000  0.00  0.00    +0.032 C 
ATOM     28  C   UNL     1      -3.989  -0.174   0.000  0.00  0.00    +0.010 C 
ATOM     29  C   UNL     1      -2.705  -0.949   0.000  0.00  0.00    -0.025 C 
ATOM     30  C   UNL     1      -2.676   0.550   0.000  0.00  0.00    +0.012 C 
ATOM     31  C   UNL     1      -1.391  -0.225   0.000  0.00  0.00    +0.002 C 
ATOM     32  C   UNL     1      -1.362   1.275   0.000  0.00  0.00    +0.005 C 
ATOM     33  C   UNL     1      -0.049   1.999   0.000  0.00  0.00    +0.005 C 
ATOM     34  C   UNL     1       1.236   1.224   0.000  0.00  0.00    +0.000 C 
ATOM     35  C   UNL     1       2.549   1.948   0.000  0.00  0.00    +0.017 C 
ENDROOT
BRANCH   1   2
ATOM      2  C   UNL     1       1.908   4.543   0.000  0.00  0.00    -0.076 C 
ATOM      3  C   UNL     1       2.399   5.960   0.000  0.00  0.00    +0.039 C 
ATOM      4  C   UNL     1       0.435   4.260   0.000  0.00  0.00    +0.007 C 
ENDBRANCH   1   2
BRANCH   7   8
ATOM      8  C   UNL     1       5.191   0.536   0.000  0.00  0.00    +0.311 C 
ATOM     11  O   UNL     1       6.422   1.394   0.000  0.00  0.00    -0.250 OA
BRANCH   8   9
ATOM      9  O   UNL     1       5.319  -0.959   0.000  0.00  0.00    -0.480 OA
ATOM     10  H   UNL     1       4.550  -1.494   0.000  0.00  0.00    +0.295 HD
ENDBRANCH   8   9
ENDBRANCH   7   8
BRANCH  24  25
ATOM     25  O   UNL     1      -6.645  -3.122   0.000  0.00  0.00    -0.391 OA
ATOM     26  H   UNL     1      -7.476  -2.621   0.000  0.00  0.00    +0.210 HD
ENDBRANCH  24  25
TORSDOF 4