REMARK  Name = 363182
REMARK  31 active torsions:
REMARK  status: ('A' for Active; 'I' for Inactive)
REMARK    1  A    between atoms: O_1  and  C_2
REMARK    2  A    between atoms: C_12  and  C_18
REMARK    3  A    between atoms: C_15  and  C_19
REMARK    4  A    between atoms: C_16  and  C_22
REMARK    5  A    between atoms: C_17  and  C_23
REMARK    6  A    between atoms: C_22  and  O_29
REMARK    7  A    between atoms: C_24  and  O_30
REMARK    8  A    between atoms: C_26  and  C_34
REMARK    9  A    between atoms: C_28  and  C_36
REMARK   10  A    between atoms: O_30  and  C_38
REMARK   11  A    between atoms: C_32  and  O_39
REMARK   12  A    between atoms: O_39  and  C_43
REMARK   13  A    between atoms: C_40  and  C_44
REMARK   14  A    between atoms: C_45  and  N_49
REMARK   15  A    between atoms: C_45  and  C_50
REMARK   16  A    between atoms: C_46  and  C_52
REMARK   17  A    between atoms: C_51  and  N_57
REMARK   18  A    between atoms: C_53  and  O_58
REMARK   19  A    between atoms: C_54  and  C_60
REMARK   20  A    between atoms: O_58  and  C_62
REMARK   21  A    between atoms: C_59  and  O_63
REMARK   22  A    between atoms: C_61  and  O_64
REMARK   23  A    between atoms: O_64  and  C_68
REMARK   24  A    between atoms: C_69  and  O_71
REMARK   25  A    between atoms: C_70  and  C_73
REMARK   26  A    between atoms: C_72  and  O_74
REMARK   27  A    between atoms: O_74  and  C_75
REMARK   28  A    between atoms: C_78  and  O_80
REMARK   29  A    between atoms: C_79  and  C_82
REMARK   30  A    between atoms: C_81  and  O_83
REMARK   31  A    between atoms: O_83  and  C_84
REMARK                            x       y       z     vdW  Elec       q    Type
REMARK                         _______ _______ _______ _____ _____    ______ ____
ROOT
ATOM      3  C   UNL     1      -8.089   2.176   0.000  0.00  0.00    +0.156 C 
ATOM      4  C   UNL     1      -9.388   1.426   0.000  0.00  0.00    +0.143 C 
ATOM      5  C   UNL     1     -10.687   2.176   0.000  0.00  0.00    +0.180 C 
ATOM      6  C   UNL     1     -10.687   3.676   0.000  0.00  0.00    +0.045 C 
ATOM      7  C   UNL     1      -9.388   4.426   0.000  0.00  0.00    +0.050 C 
ATOM      8  C   UNL     1      -9.388   5.926   0.000  0.00  0.00    -0.069 C 
ATOM      9  C   UNL     1      -8.830   7.214   0.000  0.00  0.00    -0.024 C 
ATOM     10  C   UNL     1      -7.777   8.143   0.000  0.00  0.00    +0.063 C 
ATOM     11  C   UNL     1      -6.286   8.300   0.000  0.00  0.00    +0.151 C 
ATOM     30  C   UNL     1      -5.676   6.929   0.000  0.00  0.00    -0.047 C 
ATOM     31  C   UNL     1      -4.208   6.617   0.000  0.00  0.00    +0.041 C 
ATOM     32  C   UNL     1      -5.954   5.553   0.000  0.00  0.00    -0.014 C 
ATOM     33  C   UNL     1      -6.790   4.426   0.000  0.00  0.00    +0.086 C 
ATOM     34  C   UNL     1      -5.531   4.127   0.000  0.00  0.00    -0.013 C 
ATOM     35  C   UNL     1      -5.270   2.650   0.000  0.00  0.00    -0.045 C 
ATOM     36  C   UNL     1      -6.419   1.685   0.000  0.00  0.00    +0.018 C 
ATOM     37  C   UNL     1      -6.159   0.208   0.000  0.00  0.00    +0.012 C 
ATOM     38  C   UNL     1      -7.829   2.198   0.000  0.00  0.00    +0.064 C 
ATOM     42  C   UNL     1     -10.687   6.676   0.000  0.00  0.00    +0.039 C 
ATOM     43  C   UNL     1      -9.538   5.712   0.000  0.00  0.00    -0.022 C 
ATOM     44  C   UNL     1     -10.687   6.676   0.000  0.00  0.00    -0.024 C 
ATOM     45  C   UNL     1     -11.986   5.926   0.000  0.00  0.00    +0.045 C 
ATOM     46  C   UNL     1     -13.285   6.676   0.000  0.00  0.00    +0.131 C 
ATOM     47  C   UNL     1     -14.585   5.926   0.000  0.00  0.00    +0.016 C 
ATOM     48  C   UNL     1     -14.585   4.426   0.000  0.00  0.00    +0.009 C 
ATOM     49  C   UNL     1     -13.285   3.676   0.000  0.00  0.00    -0.009 C 
ATOM     50  C   UNL     1     -13.285   2.176   0.000  0.00  0.00    +0.008 C 
ATOM     51  C   UNL     1     -15.884   6.676   0.000  0.00  0.00    +0.010 C 
ATOM     84  C   UNL     1     -11.986   4.426   0.000  0.00  0.00    +0.015 C 
ATOM     85  C   UNL     1      -9.388   2.926   0.000  0.00  0.00    +0.021 C 
ATOM     86  O   UNL     1     -11.986   1.426   0.000  0.00  0.00    -0.291 OA
ATOM     87  C   UNL     1      -8.089   1.249   0.000  0.00  0.00    +0.347 C 
ATOM     88  O   UNL     1      -7.208   2.462   0.000  0.00  0.00    -0.446 OA
ATOM     89  O   UNL     1      -7.500  -0.131   0.000  0.00  0.00    -0.245 OA
ATOM     90  C   UNL     1      -8.089   3.676   0.000  0.00  0.00    +0.181 C 
ENDROOT
BRANCH   3   1
ATOM      1  O   UNL     1      -7.125   1.027   0.000  0.00  0.00    -0.506 OA
ATOM      2  H   UNL     1      -7.638  -0.383   0.000  0.00  0.00    +0.292 HD
ENDBRANCH   3   1
BRANCH  11  12
ATOM     12  O   UNL     1      -5.536   9.599   0.000  0.00  0.00    -0.343 OA
BRANCH  12  13
ATOM     13  C   UNL     1      -4.036   9.599   0.000  0.00  0.00    +0.258 C 
ATOM     14  O   UNL     1      -3.286   8.300   0.000  0.00  0.00    -0.346 OA
ATOM     15  C   UNL     1      -1.786   8.300   0.000  0.00  0.00    +0.145 C 
ATOM     16  C   UNL     1      -1.036   9.599   0.000  0.00  0.00    +0.182 C 
ATOM     23  C   UNL     1      -1.786  10.898   0.000  0.00  0.00    +0.248 C 
ATOM     24  C   UNL     1      -2.046  12.375   0.000  0.00  0.00    +0.098 C 
ATOM     28  C   UNL     1      -1.036   7.001   0.000  0.00  0.00    +0.040 C 
ATOM     29  C   UNL     1      -3.285  10.898   0.000  0.00  0.00    +0.148 C 
BRANCH  16  17
ATOM     17  N   UNL     1       0.465   9.599   0.000  0.00  0.00    -0.269 N 
ATOM     18  H   UNL     1       1.214  10.898   0.000  0.00  0.00    +0.153 HD
ATOM     19  C   UNL     1       1.214   8.300   0.000  0.00  0.00    +0.401 C 
ATOM     20  O   UNL     1       0.464   7.001   0.000  0.00  0.00    -0.226 OA
BRANCH  19  21
ATOM     21  O   UNL     1       2.715   8.300   0.000  0.00  0.00    -0.454 OA
ATOM     22  C   UNL     1       3.465   7.001   0.000  0.00  0.00    +0.282 C 
ENDBRANCH  19  21
ENDBRANCH  16  17
BRANCH  23  25
ATOM     25  N   UNL     1      -0.376  11.411   0.000  0.00  0.00    +0.046 N 
ATOM     26  O   UNL     1       0.773  10.447   0.000  0.00  0.00    +0.035 OA
ATOM     27  O   UNL     1      -0.116  12.888   0.000  0.00  0.00    -0.581 OA
ENDBRANCH  23  25
ENDBRANCH  12  13
ENDBRANCH  11  12
BRANCH  35  39
ATOM     39  C   UNL     1      -3.861   2.136   0.000  0.00  0.00    +0.186 C 
BRANCH  39  40
ATOM     40  O   UNL     1      -3.600   0.659   0.000  0.00  0.00    -0.391 OA
ATOM     41  H   UNL     1      -2.191   0.146   0.000  0.00  0.00    +0.210 HD
ENDBRANCH  39  40
ENDBRANCH  35  39
BRANCH  46  52
ATOM     52  O   UNL     1     -13.285   8.176   0.000  0.00  0.00    -0.347 OA
BRANCH  52  53
ATOM     53  C   UNL     1     -14.585   8.926   0.000  0.00  0.00    +0.253 C 
ATOM     54  O   UNL     1     -15.884   8.176   0.000  0.00  0.00    -0.346 OA
ATOM     55  C   UNL     1     -17.183   8.926   0.000  0.00  0.00    +0.149 C 
ATOM     56  C   UNL     1     -17.183  10.426   0.000  0.00  0.00    +0.172 C 
ATOM     59  C   UNL     1     -15.884  11.176   0.000  0.00  0.00    +0.157 C 
ATOM     82  C   UNL     1     -18.482   8.176   0.000  0.00  0.00    +0.041 C 
ATOM     83  C   UNL     1     -14.584  10.426   0.000  0.00  0.00    +0.095 C 
BRANCH  56  57
ATOM     57  O   UNL     1     -18.482  11.176   0.000  0.00  0.00    -0.387 OA
ATOM     58  H   UNL     1     -19.781  10.426   0.000  0.00  0.00    +0.210 HD
ENDBRANCH  56  57
BRANCH  59  60
ATOM     60  O   UNL     1     -15.884  12.676   0.000  0.00  0.00    -0.345 OA
BRANCH  60  61
ATOM     61  C   UNL     1     -14.584  13.426   0.000  0.00  0.00    +0.254 C 
ATOM     62  O   UNL     1     -13.285  12.676   0.000  0.00  0.00    -0.346 OA
ATOM     63  C   UNL     1     -11.986  13.426   0.000  0.00  0.00    +0.150 C 
ATOM     64  C   UNL     1     -11.986  14.926   0.000  0.00  0.00    +0.178 C 
ATOM     77  C   UNL     1     -13.285  15.676   0.000  0.00  0.00    +0.151 C 
ATOM     80  C   UNL     1     -10.687  12.676   0.000  0.00  0.00    +0.041 C 
ATOM     81  C   UNL     1     -14.584  14.926   0.000  0.00  0.00    +0.095 C 
BRANCH  77  78
ATOM     78  O   UNL     1     -13.285  17.176   0.000  0.00  0.00    -0.389 OA
ATOM     79  H   UNL     1     -14.584  17.926   0.000  0.00  0.00    +0.210 HD
ENDBRANCH  77  78
BRANCH  64  65
ATOM     65  O   UNL     1     -10.687  15.676   0.000  0.00  0.00    -0.343 OA
BRANCH  65  66
ATOM     66  C   UNL     1     -10.687  17.176   0.000  0.00  0.00    +0.254 C 
ATOM     67  O   UNL     1      -9.388  17.926   0.000  0.00  0.00    -0.346 OA
ATOM     68  C   UNL     1      -9.388  19.426   0.000  0.00  0.00    +0.149 C 
ATOM     69  C   UNL     1     -10.687  20.176   0.000  0.00  0.00    +0.175 C 
ATOM     72  C   UNL     1     -11.986  19.426   0.000  0.00  0.00    +0.150 C 
ATOM     75  C   UNL     1      -8.089  20.176   0.000  0.00  0.00    +0.041 C 
ATOM     76  C   UNL     1     -11.986  17.926   0.000  0.00  0.00    +0.095 C 
BRANCH  69  70
ATOM     70  O   UNL     1     -10.687  21.676   0.000  0.00  0.00    -0.375 OA
ATOM     71  C   UNL     1      -9.388  22.426   0.000  0.00  0.00    +0.194 C 
ENDBRANCH  69  70
BRANCH  72  73
ATOM     73  O   UNL     1     -13.285  20.176   0.000  0.00  0.00    -0.389 OA
ATOM     74  H   UNL     1     -13.285  21.676   0.000  0.00  0.00    +0.210 HD
ENDBRANCH  72  73
ENDBRANCH  65  66
ENDBRANCH  64  65
ENDBRANCH  60  61
ENDBRANCH  59  60
ENDBRANCH  52  53
ENDBRANCH  46  52
TORSDOF 18