REMARK  Name = 106997
REMARK  23 active torsions:
REMARK  status: ('A' for Active; 'I' for Inactive)
REMARK    1  A    between atoms: C_1  and  C_13
REMARK    2  A    between atoms: C_1  and  C_14
REMARK    3  A    between atoms: C_3  and  C_19
REMARK    4  A    between atoms: C_3  and  C_20
REMARK    5  A    between atoms: N_5  and  C_21
REMARK    6  A    between atoms: N_5  and  O_22
REMARK    7  A    between atoms: C_6  and  CA_24
REMARK    8  A    between atoms: C_8  and  C_9
REMARK    9  A    between atoms: C_9  and  C_10
REMARK   10  A    between atoms: C_9  and  C_11
REMARK   11  A    between atoms: C_11  and  C_12
REMARK   12  A    between atoms: C_12  and  C_13
REMARK   13  A    between atoms: C_14  and  C_15
REMARK   14  A    between atoms: C_15  and  C_16
REMARK   15  A    between atoms: C_16  and  C_17
REMARK   16  A    between atoms: C_17  and  C_18
REMARK   17  A    between atoms: C_18  and  C_19
REMARK   18  A    between atoms: C_20  and  C_21
REMARK   19  A    between atoms: N_23  and  CA_24
REMARK   20  A    between atoms: CA_24  and  C_25
REMARK   21  A    between atoms: C_25  and  O_26
REMARK   22  A    between atoms: S_27  and  O_29
REMARK   23  A    between atoms: S_27  and  O_31
REMARK                            x       y       z     vdW  Elec       q    Type
REMARK                         _______ _______ _______ _____ _____    ______ ____
ROOT
ATOM      1  S   UNL     1       0.662  -3.353   0.000  0.00  0.00    +0.205 S 
ATOM      4  O   UNL     1       1.412  -2.054   0.000  0.00  0.00    -0.118 OA
ATOM      7  O   UNL     1      -0.088  -4.652   0.000  0.00  0.00    -0.118 OA
ENDROOT
BRANCH   1   2
ATOM      2  O   UNL     1      -0.637  -2.603   0.000  0.00  0.00    -0.231 OA
ATOM      3  H   UNL     1      -0.637  -1.633   0.000  0.00  0.00    +0.247 HD
ENDBRANCH   1   2
BRANCH   1   5
ATOM      5  O   UNL     1       1.961  -4.103   0.000  0.00  0.00    -0.231 OA
ATOM      6  H   UNL     1       1.961  -5.073   0.000  0.00  0.00    +0.247 HD
ENDBRANCH   1   5
TORSDOF 2