REMARK  Name = 34757
REMARK  5 active torsions:
REMARK  status: ('A' for Active; 'I' for Inactive)
REMARK    1  A    between atoms: N_2  and  C_19
REMARK    2  A    between atoms: C_5  and  O_22
REMARK    3  A    between atoms: C_16  and  O_20
REMARK    4  A    between atoms: O_20  and  C_21
REMARK    5  A    between atoms: O_22  and  C_23
REMARK                            x       y       z     vdW  Elec       q    Type
REMARK                         _______ _______ _______ _____ _____    ______ ____
ROOT
ATOM      1  O   UNL     1      -4.745  -5.302   0.000  0.00  0.00    -0.286 OA
ATOM      2  C   UNL     1      -3.864  -6.515   0.000  0.00  0.00    +0.201 A 
ATOM      3  C   UNL     1      -4.474  -7.886   0.000  0.00  0.00    +0.046 A 
ATOM      4  C   UNL     1      -5.966  -8.042   0.000  0.00  0.00    +0.014 A 
ATOM      5  C   UNL     1      -6.576  -9.413   0.000  0.00  0.00    +0.001 A 
ATOM      6  C   UNL     1      -5.694 -10.626   0.000  0.00  0.00    +0.002 A 
ATOM      7  C   UNL     1      -4.202 -10.470   0.000  0.00  0.00    +0.026 A 
ATOM      8  C   UNL     1      -3.592  -9.099   0.000  0.00  0.00    +0.053 A 
ATOM      9  N   UNL     1      -2.100  -8.942   0.000  0.00  0.00    -0.340 N 
ATOM     10  C   UNL     1      -1.219 -10.156   0.000  0.00  0.00    +0.149 C 
ATOM     11  C   UNL     1      -1.490  -7.572   0.000  0.00  0.00    +0.103 A 
ATOM     12  C   UNL     1       0.002  -7.415   0.000  0.00  0.00    +0.190 A 
ATOM     15  C   UNL     1       0.612  -6.045   0.000  0.00  0.00    +0.213 A 
ATOM     16  C   UNL     1      -0.270  -4.831   0.000  0.00  0.00    +0.212 A 
ATOM     17  C   UNL     1      -1.762  -4.988   0.000  0.00  0.00    +0.178 A 
ATOM     20  O   UNL     1       0.612  -3.618   0.000  0.00  0.00    -0.449 OA
ATOM     21  C   UNL     1       2.038  -4.081   0.000  0.00  0.00    +0.467 C 
ATOM     22  O   UNL     1       2.038  -5.581   0.000  0.00  0.00    -0.449 OA
ATOM     23  C   UNL     1      -2.372  -6.359   0.000  0.00  0.00    +0.095 A 
ENDROOT
BRANCH  12  13
ATOM     13  O   UNL     1       0.883  -8.629   0.000  0.00  0.00    -0.489 OA
ATOM     14  C   UNL     1       0.273  -9.999   0.000  0.00  0.00    +0.277 C 
ENDBRANCH  12  13
BRANCH  17  18
ATOM     18  O   UNL     1      -2.643  -3.775   0.000  0.00  0.00    -0.491 OA
ATOM     19  C   UNL     1      -4.135  -3.932   0.000  0.00  0.00    +0.277 C 
ENDBRANCH  17  18
TORSDOF 2