REMARK  Name = 328477
REMARK  5 active torsions:
REMARK  status: ('A' for Active; 'I' for Inactive)
REMARK    1  A    between atoms: C_3  and  N_16
REMARK    2  A    between atoms: C_4  and  O_19
REMARK    3  A    between atoms: C_6  and  C_7
REMARK    4  A    between atoms: C_9  and  N_20
REMARK    5  A    between atoms: C_10  and  C_21
REMARK                            x       y       z     vdW  Elec       q    Type
REMARK                         _______ _______ _______ _____ _____    ______ ____
ROOT
ATOM     10  C   UNL     1       6.750   4.647   0.000  0.00  0.00    +0.252 C 
ATOM     11  N   UNL     1       7.500   3.348   0.000  0.00  0.00    -0.281 N 
ATOM     12  H   UNL     1       7.008   2.495   0.000  0.00  0.00    +0.155 HD
ATOM     21  O   UNL     1       7.500   5.946   0.000  0.00  0.00    -0.270 OA
ENDROOT
BRANCH  11  13
ATOM     13  C   UNL     1       9.000   3.348   0.000  0.00  0.00    +0.038 A 
ATOM     14  C   UNL     1       9.750   2.049   0.000  0.00  0.00    -0.011 A 
ATOM     15  C   UNL     1       9.000   0.750   0.000  0.00  0.00    +0.047 C 
ATOM     16  C   UNL     1      11.250   2.049   0.000  0.00  0.00    +0.046 A 
ATOM     17 CL   UNL     1      12.000   0.750   0.000  0.00  0.00    -0.083 Cl
ATOM     18  C   UNL     1      12.000   3.348   0.000  0.00  0.00    +0.020 A 
ATOM     19  C   UNL     1      11.250   4.647   0.000  0.00  0.00    +0.003 A 
ATOM     20  C   UNL     1       9.750   4.647   0.000  0.00  0.00    +0.023 A 
ENDBRANCH  11  13
BRANCH  10   9
ATOM      1  C   UNL     1       2.250   4.647   0.000  0.00  0.00    +0.088 A 
ATOM      2  C   UNL     1       3.000   3.348   0.000  0.00  0.00    +0.315 A 
ATOM      6  C   UNL     1       4.500   3.348   0.000  0.00  0.00    +0.207 A 
ATOM      9  C   UNL     1       5.250   4.647   0.000  0.00  0.00    +0.085 A 
ATOM     22  C   UNL     1       4.500   5.946   0.000  0.00  0.00    +0.017 A 
ATOM     23  C   UNL     1       3.000   5.946   0.000  0.00  0.00    +0.008 A 
BRANCH   2   3
ATOM      3  N   UNL     1       2.250   2.049   0.000  0.00  0.00    +0.083 N 
ATOM      4  O   UNL     1       3.000   0.750   0.000  0.00  0.00    +0.042 OA
ATOM      5  O   UNL     1       0.750   2.049   0.000  0.00  0.00    -0.576 OA
ENDBRANCH   2   3
BRANCH   6   7
ATOM      7  O   UNL     1       5.250   2.049   0.000  0.00  0.00    -0.501 OA
ATOM      8  H   UNL     1       4.781   1.238   0.000  0.00  0.00    +0.292 HD
ENDBRANCH   6   7
ENDBRANCH  10   9
TORSDOF 4