REMARK  Name = 1771
REMARK  9 active torsions:
REMARK  status: ('A' for Active; 'I' for Inactive)
REMARK    1  A    between atoms: N_1  and  C_2
REMARK    2  A    between atoms: N_1  and  C_3
REMARK    3  A    between atoms: N_1  and  C_4
REMARK    4  A    between atoms: C_4  and  S_6
REMARK    5  A    between atoms: S_6  and  S_7
REMARK    6  A    between atoms: S_7  and  C_8
REMARK    7  A    between atoms: C_8  and  N_10
REMARK    8  A    between atoms: N_10  and  C_11
REMARK    9  A    between atoms: N_10  and  C_12
REMARK                            x       y       z     vdW  Elec       q    Type
REMARK                         _______ _______ _______ _____ _____    ______ ____
ROOT
ATOM      3  S   UNL     1       4.024  -2.873   0.000  0.00  0.00    -0.027 S 
ENDROOT
BRANCH   3   2
ATOM      2  C   UNL     1       3.275  -1.574   0.000  0.00  0.00    +0.120 C 
ATOM     10  S   UNL     1       1.775  -1.574   0.000  0.00  0.00    -0.027 S 
BRANCH   2   1
ATOM      1  N   UNL     1       4.024  -0.275   0.000  0.00  0.00    -0.325 N 
ATOM     11  C   UNL     1       5.524  -0.275   0.000  0.00  0.00    +0.130 C 
ATOM     12  C   UNL     1       3.275   1.025   0.000  0.00  0.00    +0.130 C 
ENDBRANCH   2   1
ENDBRANCH   3   2
BRANCH   3   4
ATOM      4  S   UNL     1       5.524  -2.873   0.000  0.00  0.00    -0.027 S 
BRANCH   4   5
ATOM      5  C   UNL     1       6.274  -4.172   0.000  0.00  0.00    +0.120 C 
ATOM      9  S   UNL     1       7.774  -4.172   0.000  0.00  0.00    -0.027 S 
BRANCH   5   6
ATOM      6  N   UNL     1       5.524  -5.471   0.000  0.00  0.00    -0.325 N 
ATOM      7  C   UNL     1       6.274  -6.770   0.000  0.00  0.00    +0.130 C 
ATOM      8  C   UNL     1       4.024  -5.471   0.000  0.00  0.00    +0.130 C 
ENDBRANCH   5   6
ENDBRANCH   4   5
ENDBRANCH   3   4
TORSDOF 5