REMARK  Name = 169543
REMARK  6 active torsions:
REMARK  status: ('A' for Active; 'I' for Inactive)
REMARK    1  A    between atoms: N_2  and  N_11
REMARK    2  A    between atoms: C_5  and  C_10
REMARK    3  A    between atoms: C_6  and  N_7
REMARK    4  A    between atoms: N_11  and  C_12
REMARK    5  A    between atoms: C_12  and  N_14
REMARK    6  A    between atoms: N_14  and  C_15
REMARK                            x       y       z     vdW  Elec       q    Type
REMARK                         _______ _______ _______ _____ _____    ______ ____
ROOT
ATOM      9  C   UNL     1       6.926  -4.248   0.000  0.00  0.00    +0.145 C 
ATOM     10  N   UNL     1       6.176  -5.548   0.000  0.00  0.00    -0.188 NA
ENDROOT
BRANCH   9   8
ATOM      1  S   UNL     1       4.684  -2.793   0.000  0.00  0.00    -0.014 S 
ATOM      2  C   UNL     1       4.372  -1.325   0.000  0.00  0.00    +0.312 A 
ATOM      6  C   UNL     1       5.671  -0.575   0.000  0.00  0.00    +0.093 A 
ATOM      7  C   UNL     1       6.786  -1.579   0.000  0.00  0.00    +0.024 A 
ATOM      8  C   UNL     1       6.176  -2.950   0.000  0.00  0.00    +0.038 A 
BRANCH   2   3
ATOM      3  N   UNL     1       3.002  -0.715   0.000  0.00  0.00    +0.087 N 
ATOM      4  O   UNL     1       1.788  -1.597   0.000  0.00  0.00    +0.042 OA
ATOM      5  O   UNL     1       2.845   0.776   0.000  0.00  0.00    -0.576 OA
ENDBRANCH   2   3
ENDBRANCH   9   8
BRANCH  10  11
ATOM     11  N   UNL     1       6.926  -6.847   0.000  0.00  0.00    -0.218 N 
ATOM     12  H   UNL     1       6.433  -7.699   0.000  0.00  0.00    +0.176 HD
BRANCH  11  13
ATOM     13  C   UNL     1       8.426  -6.847   0.000  0.00  0.00    +0.150 C 
ATOM     17  S   UNL     1       9.176  -5.548   0.000  0.00  0.00    -0.017 S 
BRANCH  13  14
ATOM     14  N   UNL     1       9.176  -8.146   0.000  0.00  0.00    -0.328 N 
ATOM     15  H   UNL     1       8.683  -8.998   0.000  0.00  0.00    +0.147 HD
ATOM     16  C   UNL     1      10.676  -8.146   0.000  0.00  0.00    +0.127 C 
ENDBRANCH  13  14
ENDBRANCH  11  13
ENDBRANCH  10  11
TORSDOF 5