REMARK  Name = 11930
REMARK  8 active torsions:
REMARK  status: ('A' for Active; 'I' for Inactive)
REMARK    1  A    between atoms: C_2  and  O_14
REMARK    2  A    between atoms: C_4  and  C_21
REMARK    3  A    between atoms: C_9  and  C_21
REMARK    4  A    between atoms: O_14  and  C_15
REMARK    5  A    between atoms: C_15  and  C_16
REMARK    6  A    between atoms: C_16  and  N_17
REMARK    7  A    between atoms: N_17  and  C_18
REMARK    8  A    between atoms: N_17  and  C_19
REMARK                            x       y       z     vdW  Elec       q    Type
REMARK                         _______ _______ _______ _____ _____    ______ ____
ROOT
ATOM      1 CL   UNL     1      -0.976  -1.430   0.000  0.00  0.00    -0.145 Cl
ATOM      2  H   UNL     1       0.354  -1.430   0.000  0.00  0.00    +0.145 HD
ENDROOT
TORSDOF 0