REMARK  Name = 208914
REMARK  6 active torsions:
REMARK  status: ('A' for Active; 'I' for Inactive)
REMARK    1  A    between atoms: C_9  and  N_16
REMARK    2  A    between atoms: C_14  and  O_15
REMARK    3  A    between atoms: C_14  and  C_18
REMARK    4  A    between atoms: O_15  and  C_19
REMARK    5  A    between atoms: N_17  and  C_18
REMARK    6  A    between atoms: C_19  and  C_20
REMARK                            x       y       z     vdW  Elec       q    Type
REMARK                         _______ _______ _______ _____ _____    ______ ____
ROOT
ATOM      5  N   UNL     1       4.384   4.612   0.000  0.00  0.00    -0.294 N 
ATOM      6  H   UNL     1       3.900   3.754   0.000  0.00  0.00    +0.151 HD
ATOM      7  C   UNL     1       5.884   4.626   0.000  0.00  0.00    +0.300 C 
ATOM      8  N   UNL     1       6.646   3.334   0.000  0.00  0.00    -0.289 N 
ATOM      9  H   UNL     1       6.162   2.476   0.000  0.00  0.00    +0.151 HD
ATOM     16  O   UNL     1       6.622   5.932   0.000  0.00  0.00    -0.253 OA
ENDROOT
BRANCH   5   4
ATOM      1  C   UNL     1       1.708   6.983   0.000  0.00  0.00    +0.007 C 
ATOM      2  C   UNL     1       0.750   7.521   0.000  0.00  0.00    -0.008 C 
ATOM      3  C   UNL     1       1.719   5.886   0.000  0.00  0.00    +0.029 C 
ATOM      4  C   UNL     1       3.622   5.903   0.000  0.00  0.00    +0.037 C 
ATOM     17  C   UNL     1       3.609   7.003   0.000  0.00  0.00    +0.029 C 
ATOM     18  C   UNL     1       4.556   7.558   0.000  0.00  0.00    +0.029 C 
ATOM     19  C   UNL     1       3.589   9.196   0.000  0.00  0.00    -0.008 C 
ATOM     20  C   UNL     1       2.642   8.638   0.000  0.00  0.00    +0.007 C 
ATOM     21  C   UNL     1       1.688   9.178   0.000  0.00  0.00    +0.007 C 
ATOM     22  C   UNL     1       2.653   7.541   0.000  0.00  0.00    -0.008 C 
ENDBRANCH   5   4
BRANCH   8  10
ATOM     10  C   UNL     1       8.146   3.348   0.000  0.00  0.00    +0.226 C 
BRANCH  10  11
ATOM     11  C   UNL     1       8.908   2.056   0.000  0.00  0.00    +0.324 C 
ATOM     15  O   UNL     1       8.170   0.750   0.000  0.00  0.00    -0.249 OA
BRANCH  11  12
ATOM     12  O   UNL     1      10.408   2.070   0.000  0.00  0.00    -0.464 OA
BRANCH  12  13
ATOM     13  C   UNL     1      11.170   0.778   0.000  0.00  0.00    +0.229 C 
ATOM     14  C   UNL     1      12.670   0.792   0.000  0.00  0.00    +0.048 C 
ENDBRANCH  12  13
ENDBRANCH  11  12
ENDBRANCH  10  11
ENDBRANCH   8  10
TORSDOF 5