REMARK  Name = 326231
REMARK  10 active torsions:
REMARK  status: ('A' for Active; 'I' for Inactive)
REMARK    1  A    between atoms: C_1  and  C_2
REMARK    2  A    between atoms: C_1  and  C_14
REMARK    3  A    between atoms: C_2  and  C_3
REMARK    4  A    between atoms: C_3  and  S_4
REMARK    5  A    between atoms: S_4  and  C_5
REMARK    6  A    between atoms: C_5  and  C_7
REMARK    7  A    between atoms: C_7  and  CA_8
REMARK    8  A    between atoms: CA_8  and  C_10
REMARK    9  A    between atoms: CA_8  and  N_13
REMARK   10  A    between atoms: C_10  and  OXT_12
REMARK                            x       y       z     vdW  Elec       q    Type
REMARK                         _______ _______ _______ _____ _____    ______ ____
ROOT
ATOM      9  C   UNL     1      -8.490  -0.464   0.000  0.00  0.00    +0.115 C 
ENDROOT
BRANCH   9   5
ATOM      5  S   UNL     1      -9.789   0.286   0.000  0.00  0.00    +0.046 S 
ATOM      6  N   UNL     1      -9.039   1.585   0.000  0.00  0.00    -0.252 NA
ATOM      7  H   UNL     1      -8.054   1.585   0.000  0.00  0.00    +0.197 HD
ATOM      8  O   UNL     1     -11.088   1.036   0.000  0.00  0.00    -0.248 OA
BRANCH   5   4
ATOM      4  C   UNL     1     -10.539  -1.013   0.000  0.00  0.00    +0.113 C 
BRANCH   4   3
ATOM      3  C   UNL     1     -12.039  -1.013   0.000  0.00  0.00    +0.014 C 
BRANCH   3   1
ATOM      1  C   UNL     1     -12.789  -2.313   0.000  0.00  0.00    -0.002 C 
ATOM      2  C   UNL     1     -14.289  -2.313   0.000  0.00  0.00    +0.004 C 
ENDBRANCH   3   1
ENDBRANCH   4   3
ENDBRANCH   5   4
ENDBRANCH   9   5
BRANCH   9  10
ATOM     10  C   UNL     1      -7.191   0.286   0.000  0.00  0.00    +0.044 C 
BRANCH  10  11
ATOM     11  CA  UNL     1      -5.892  -0.464   0.000  0.00  0.00    +0.162 C 
BRANCH  11  12
ATOM     12  N   UNL     1      -5.892  -1.964   0.000  0.00  0.00    -0.318 NA
ATOM     13  H1  UNL     1      -5.008  -2.474   0.000  0.00  0.00    +0.119 HD
ATOM     14  H2  UNL     1      -6.775  -2.474   0.000  0.00  0.00    +0.119 HD
ENDBRANCH  11  12
BRANCH  11  15
ATOM     15  C   UNL     1      -4.593   0.286   0.000  0.00  0.00    +0.322 C 
ATOM     18  O   UNL     1      -3.294  -0.464   0.000  0.00  0.00    -0.249 OA
BRANCH  15  16
ATOM     16  OXT UNL     1      -4.593   1.786   0.000  0.00  0.00    -0.480 OA
ATOM     17  HXT UNL     1      -3.781   2.254   0.000  0.00  0.00    +0.295 HD
ENDBRANCH  15  16
ENDBRANCH  11  15
ENDBRANCH  10  11
ENDBRANCH   9  10
TORSDOF 9