REMARK  Name = 376791
REMARK  11 active torsions:
REMARK  status: ('A' for Active; 'I' for Inactive)
REMARK    1  A    between atoms: C_3  and  C_17
REMARK    2  A    between atoms: C_3  and  C_18
REMARK    3  A    between atoms: N_6  and  C_19
REMARK    4  A    between atoms: N_11  and  C_24
REMARK    5  A    between atoms: C_15  and  C_25
REMARK    6  A    between atoms: C_15  and  C_26
REMARK    7  A    between atoms: C_19  and  C_20
REMARK    8  A    between atoms: C_20  and  C_21
REMARK    9  A    between atoms: C_21  and  C_22
REMARK   10  A    between atoms: C_22  and  C_23
REMARK   11  A    between atoms: C_23  and  C_24
REMARK                            x       y       z     vdW  Elec       q    Type
REMARK                         _______ _______ _______ _____ _____    ______ ____
ROOT
ATOM     11  C   UNL     1       8.308   4.689   0.000  0.00  0.00    +0.002 C 
ENDROOT
BRANCH  11  10
ATOM     10  C   UNL     1       6.808   4.689   0.000  0.00  0.00    +0.019 C 
BRANCH  10   9
ATOM      9  C   UNL     1       6.058   3.390   0.000  0.00  0.00    +0.118 C 
BRANCH   9   8
ATOM      1  H   UNL     1       1.037   5.022   0.000  0.00  0.00    +0.151 HD
ATOM      2  N   UNL     1       2.250   4.140   0.000  0.00  0.00    -0.285 N 
ATOM      3  C   UNL     1       2.250   2.640   0.000  0.00  0.00    +0.107 C 
ATOM      4  C   UNL     1       2.250   1.140   0.000  0.00  0.00    +0.041 C 
ATOM      5  C   UNL     1       0.750   2.640   0.000  0.00  0.00    +0.041 C 
ATOM      6  C   UNL     1       3.677   2.177   0.000  0.00  0.00    +0.246 C 
ATOM      7  O   UNL     1       4.140   0.750   0.000  0.00  0.00    -0.273 OA
ATOM      8  N   UNL     1       4.558   3.390   0.000  0.00  0.00    -0.224 N 
ATOM     25  C   UNL     1       3.677   4.604   0.000  0.00  0.00    +0.309 C 
ATOM     26  O   UNL     1       4.140   6.030   0.000  0.00  0.00    -0.252 OA
ENDBRANCH   9   8
ENDBRANCH  10   9
ENDBRANCH  11  10
BRANCH  11  12
ATOM     12  C   UNL     1       9.058   5.988   0.000  0.00  0.00    +0.002 C 
BRANCH  12  13
ATOM     13  C   UNL     1      11.053   5.637   0.000  0.00  0.00    +0.019 C 
BRANCH  13  14
ATOM     14  C   UNL     1      12.354   7.188   0.000  0.00  0.00    +0.118 C 
BRANCH  14  15
ATOM     15  N   UNL     1      11.841   8.597   0.000  0.00  0.00    -0.224 N 
ATOM     16  C   UNL     1      13.283   8.184   0.000  0.00  0.00    +0.246 C 
ATOM     17  O   UNL     1      14.465   9.107   0.000  0.00  0.00    -0.273 OA
ATOM     18  C   UNL     1      13.335   6.685   0.000  0.00  0.00    +0.107 C 
ATOM     19  C   UNL     1      13.698   5.229   0.000  0.00  0.00    +0.041 C 
ATOM     20  C   UNL     1      14.821   6.894   0.000  0.00  0.00    +0.041 C 
ATOM     21  N   UNL     1      11.926   6.172   0.000  0.00  0.00    -0.285 N 
ATOM     22  H   UNL     1      11.512   4.730   0.000  0.00  0.00    +0.151 HD
ATOM     23  C   UNL     1      11.002   7.354   0.000  0.00  0.00    +0.309 C 
ATOM     24  O   UNL     1       9.503   7.301   0.000  0.00  0.00    -0.252 OA
ENDBRANCH  14  15
ENDBRANCH  13  14
ENDBRANCH  12  13
ENDBRANCH  11  12
TORSDOF 7