REMARK  Name = 155595
REMARK  2 active torsions:
REMARK  status: ('A' for Active; 'I' for Inactive)
REMARK    1  A    between atoms: C_13  and  C_15
REMARK    2  A    between atoms: C_19  and  C_21
REMARK                            x       y       z     vdW  Elec       q    Type
REMARK                         _______ _______ _______ _____ _____    ______ ____
ROOT
ATOM      1  N   UNL     1      10.718  -0.448   0.000  0.00  0.00    -0.335 N 
ATOM      2  H   UNL     1      11.052   1.015   0.000  0.00  0.00    +0.147 HD
ATOM      3  C   UNL     1       9.256  -0.781   0.000  0.00  0.00    +0.103 C 
ATOM      4  C   UNL     1       8.605  -2.133   0.000  0.00  0.00    +0.064 C 
ATOM      5  C   UNL     1       9.256  -3.484   0.000  0.00  0.00    +0.176 C 
ATOM      8  N   UNL     1      10.718  -3.818   0.000  0.00  0.00    -0.327 N 
ATOM      9  H   UNL     1      11.052  -5.280   0.000  0.00  0.00    +0.147 HD
ATOM     10  C   UNL     1      11.891  -2.883   0.000  0.00  0.00    +0.049 A 
ATOM     11  C   UNL     1      13.190  -3.633   0.000  0.00  0.00    +0.026 A 
ATOM     12  C   UNL     1      14.489  -2.883   0.000  0.00  0.00    +0.022 A 
ATOM     13  C   UNL     1      14.489  -1.383   0.000  0.00  0.00    +0.043 A 
ATOM     14  C   UNL     1      13.190  -0.633   0.000  0.00  0.00    +0.044 A 
ATOM     15 CL   UNL     1      15.788  -0.633   0.000  0.00  0.00    -0.083 Cl
ATOM     22  C   UNL     1      11.891  -1.383   0.000  0.00  0.00    +0.050 A 
ENDROOT
BRANCH   3  16
ATOM     16  C   UNL     1       8.321   0.392   0.000  0.00  0.00    -0.027 A 
ATOM     17  C   UNL     1       6.838   0.168   0.000  0.00  0.00    +0.005 A 
ATOM     18  C   UNL     1       5.902   1.341   0.000  0.00  0.00    +0.000 A 
ATOM     19  C   UNL     1       6.450   2.737   0.000  0.00  0.00    +0.000 A 
ATOM     20  C   UNL     1       7.934   2.961   0.000  0.00  0.00    +0.000 A 
ATOM     21  C   UNL     1       8.869   1.788   0.000  0.00  0.00    +0.005 A 
ENDBRANCH   3  16
BRANCH   5   6
ATOM      6  C   UNL     1       8.321  -4.657   0.000  0.00  0.00    +0.085 C 
ATOM      7  N   UNL     1       7.386  -5.830   0.000  0.00  0.00    -0.195 NA
ENDBRANCH   5   6
TORSDOF 2