REMARK  Name = 173904
REMARK  14 active torsions:
REMARK  status: ('A' for Active; 'I' for Inactive)
REMARK    1  A    between atoms: O_2  and  C_29
REMARK    2  A    between atoms: O_2  and  C_31
REMARK    3  A    between atoms: C_5  and  C_15
REMARK    4  A    between atoms: C_10  and  C_31
REMARK    5  A    between atoms: C_15  and  C_18
REMARK    6  A    between atoms: C_16  and  C_18
REMARK    7  A    between atoms: C_16  and  C_20
REMARK    8  A    between atoms: C_18  and  N_19
REMARK    9  A    between atoms: C_21  and  C_24
REMARK   10  A    between atoms: C_23  and  C_24
REMARK   11  A    between atoms: C_23  and  C_26
REMARK   12  A    between atoms: C_24  and  N_25
REMARK   13  A    between atoms: C_26  and  C_27
REMARK   14  A    between atoms: C_26  and  C_28
REMARK                            x       y       z     vdW  Elec       q    Type
REMARK                         _______ _______ _______ _____ _____    ______ ____
ROOT
ATOM      8  C   UNL     1       1.025  10.775   0.000  0.00  0.00    +0.162 C 
ENDROOT
BRANCH   8   7
ATOM      5  N   UNL     1      -0.275   8.524   0.000  0.00  0.00    -0.304 N 
ATOM      6  H   UNL     1       0.578   8.032   0.000  0.00  0.00    +0.149 HD
ATOM      7  C   UNL     1      -0.275  10.025   0.000  0.00  0.00    +0.234 C 
ATOM     25  O   UNL     1      -1.574  10.775   0.000  0.00  0.00    -0.274 OA
BRANCH   5   4
ATOM      4  C   UNL     1      -1.574   7.774   0.000  0.00  0.00    +0.145 C 
BRANCH   4   3
ATOM      3  C   UNL     1      -2.873   8.524   0.000  0.00  0.00    +0.168 C 
ATOM     33  O   UNL     1      -4.172   7.774   0.000  0.00  0.00    -0.294 OA
BRANCH   3   2
ATOM      1 CL   UNL     1      -4.172  10.775   0.000  0.00  0.00    -0.117 Cl
ATOM      2  C   UNL     1      -2.873  10.025   0.000  0.00  0.00    +0.184 C 
ENDBRANCH   3   2
ENDBRANCH   4   3
BRANCH   4  26
ATOM     26  C   UNL     1      -1.574   6.274   0.000  0.00  0.00    +0.065 C 
BRANCH  26  27
ATOM     27  C   UNL     1      -2.873   5.524   0.000  0.00  0.00    -0.045 A 
ATOM     28  C   UNL     1      -2.873   4.024   0.000  0.00  0.00    +0.004 A 
ATOM     29  C   UNL     1      -4.172   3.275   0.000  0.00  0.00    +0.000 A 
ATOM     30  C   UNL     1      -5.471   4.024   0.000  0.00  0.00    +0.000 A 
ATOM     31  C   UNL     1      -5.471   5.524   0.000  0.00  0.00    +0.000 A 
ATOM     32  C   UNL     1      -4.172   6.274   0.000  0.00  0.00    +0.004 A 
ENDBRANCH  26  27
ENDBRANCH   4  26
ENDBRANCH   5   4
ENDBRANCH   8   7
BRANCH   8   9
ATOM      9  N   UNL     1       2.324  10.025   0.000  0.00  0.00    -0.270 N 
ATOM     10  H   UNL     1       2.324   9.040   0.000  0.00  0.00    +0.153 HD
ATOM     11  C   UNL     1       3.623  10.775   0.000  0.00  0.00    +0.401 C 
ATOM     12  O   UNL     1       4.922  10.025   0.000  0.00  0.00    -0.226 OA
BRANCH  11  13
ATOM     13  O   UNL     1       3.623  12.275   0.000  0.00  0.00    -0.446 OA
BRANCH  13  14
ATOM     14  C   UNL     1       4.922  13.025   0.000  0.00  0.00    +0.269 C 
BRANCH  14  15
ATOM     15  C   UNL     1       6.221  12.275   0.000  0.00  0.00    -0.010 A 
ATOM     16  C   UNL     1       7.520  13.025   0.000  0.00  0.00    +0.007 A 
ATOM     17  C   UNL     1       8.819  12.275   0.000  0.00  0.00    +0.000 A 
ATOM     18  C   UNL     1       8.819  10.775   0.000  0.00  0.00    +0.000 A 
ATOM     19  C   UNL     1       7.520  10.025   0.000  0.00  0.00    +0.000 A 
ATOM     20  C   UNL     1       6.221  10.775   0.000  0.00  0.00    +0.007 A 
ENDBRANCH  14  15
ENDBRANCH  13  14
ENDBRANCH  11  13
ENDBRANCH   8   9
BRANCH   8  21
ATOM     21  C   UNL     1       1.025  12.275   0.000  0.00  0.00    +0.035 C 
BRANCH  21  22
ATOM     22  C   UNL     1      -0.275  13.025   0.000  0.00  0.00    -0.015 C 
ATOM     23  C   UNL     1      -0.275  14.525   0.000  0.00  0.00    +0.007 C 
ATOM     24  C   UNL     1      -1.574  12.275   0.000  0.00  0.00    +0.007 C 
ENDBRANCH  21  22
ENDBRANCH   8  21
TORSDOF 12