REMARK  Name = 284751
REMARK  3 active torsions:
REMARK  status: ('A' for Active; 'I' for Inactive)
REMARK    1  A    between atoms: P_2  and  O_20
REMARK    2  A    between atoms: C_14  and  O_23
REMARK    3  A    between atoms: N_15  and  C_16
REMARK                            x       y       z     vdW  Elec       q    Type
REMARK                         _______ _______ _______ _____ _____    ______ ____
ROOT
ATOM      1  O   UNL     1      -2.149  -2.321   0.000  0.00  0.00    -0.284 OA
ATOM      2  C   UNL     1      -1.116  -1.232   0.000  0.00  0.00    +0.206 C 
ATOM      3  C   UNL     1      -0.690  -2.671   0.000  0.00  0.00    +0.179 C 
ATOM      4  C   UNL     1       0.768  -3.021   0.000  0.00  0.00    +0.194 C 
ATOM      5  O   UNL     1      -0.264  -4.109   0.000  0.00  0.00    -0.278 OA
ATOM      6  C   UNL     1       1.552  -1.742   0.000  0.00  0.00    +0.196 C 
ATOM      9  C   UNL     1       0.578  -0.601   0.000  0.00  0.00    +0.255 C 
ATOM     23  O   UNL     1      -0.808  -1.175   0.000  0.00  0.00    -0.346 OA
ATOM     24  P   UNL     1      -1.723  -3.759   0.000  0.00  0.00    +0.475 P 
ATOM     27  O   UNL     1      -1.297  -5.197   0.000  0.00  0.00    -0.227 OA
ENDROOT
BRANCH   9  10
ATOM     10  N   UNL     1       0.928   0.858   0.000  0.00  0.00    -0.270 N 
ATOM     11  C   UNL     1       2.314   1.432   0.000  0.00  0.00    +0.208 A 
ATOM     12 CL   UNL     1       3.593   0.648   0.000  0.00  0.00    -0.043 Cl
ATOM     13  N   UNL     1       2.196   2.927   0.000  0.00  0.00    -0.212 NA
ATOM     14  C   UNL     1       0.737   3.277   0.000  0.00  0.00    +0.149 A 
ATOM     15  C   UNL     1       0.021   4.595   0.000  0.00  0.00    +0.147 A 
ATOM     16  N   UNL     1       0.805   5.874   0.000  0.00  0.00    -0.341 N 
ATOM     17  H   UNL     1       0.335   6.739   0.000  0.00  0.00    +0.144 HD
ATOM     18  H   UNL     1       1.789   5.848   0.000  0.00  0.00    +0.144 HD
ATOM     19  N   UNL     1      -1.478   4.634   0.000  0.00  0.00    -0.219 NA
ATOM     20  C   UNL     1      -2.262   3.355   0.000  0.00  0.00    +0.225 A 
ATOM     21  N   UNL     1      -1.546   2.037   0.000  0.00  0.00    -0.216 NA
ATOM     22  C   UNL     1      -0.046   1.998   0.000  0.00  0.00    +0.169 A 
ENDBRANCH   9  10
BRANCH   6   7
ATOM      7  O   UNL     1       3.047  -1.624   0.000  0.00  0.00    -0.385 OA
ATOM      8  H   UNL     1       3.597  -2.423   0.000  0.00  0.00    +0.210 HD
ENDBRANCH   6   7
BRANCH  24  25
ATOM     25  O   UNL     1      -3.161  -4.185   0.000  0.00  0.00    -0.302 OA
ATOM     26  H   UNL     1      -3.865  -3.517   0.000  0.00  0.00    +0.222 HD
ENDBRANCH  24  25
TORSDOF 3