REMARK  Name = 292567
REMARK  22 active torsions:
REMARK  status: ('A' for Active; 'I' for Inactive)
REMARK    1  A    between atoms: C_1  and  C_2
REMARK    2  A    between atoms: C_7  and  C_10
REMARK    3  A    between atoms: C_8  and  C_12
REMARK    4  A    between atoms: C_8  and  C_13
REMARK    5  A    between atoms: C_9  and  C_14
REMARK    6  A    between atoms: C_11  and  O_16
REMARK    7  A    between atoms: C_14  and  C_19
REMARK    8  A    between atoms: O_16  and  C_20
REMARK    9  A    between atoms: C_21  and  C_25
REMARK   10  A    between atoms: C_21  and  C_26
REMARK   11  A    between atoms: C_27  and  C_31
REMARK   12  A    between atoms: C_30  and  C_34
REMARK   13  A    between atoms: C_31  and  C_36
REMARK   14  A    between atoms: C_31  and  C_37
REMARK   15  A    between atoms: C_32  and  C_38
REMARK   16  A    between atoms: C_33  and  C_39
REMARK   17  A    between atoms: C_36  and  O_41
REMARK   18  A    between atoms: C_43  and  C_45
REMARK   19  A    between atoms: C_44  and  C_47
REMARK   20  A    between atoms: C_44  and  O_48
REMARK   21  A    between atoms: C_47  and  O_50
REMARK   22  A    between atoms: C_49  and  C_51
REMARK                            x       y       z     vdW  Elec       q    Type
REMARK                         _______ _______ _______ _____ _____    ______ ____
ROOT
ATOM      1  C   UNL     1      -4.988 -14.496   0.000  0.00  0.00    +0.013 C 
ATOM      2  C   UNL     1      -6.103 -13.492   0.000  0.00  0.00    +0.048 C 
ATOM      3  C   UNL     1      -7.570 -13.804   0.000  0.00  0.00    +0.046 C 
ATOM      4  C   UNL     1      -8.320 -12.505   0.000  0.00  0.00    +0.096 C 
ATOM      5  O   UNL     1      -7.316 -11.390   0.000  0.00  0.00    -0.339 OA
ATOM     31  C   UNL     1      -9.534 -13.386   0.000  0.00  0.00    +0.044 C 
ATOM     32  C   UNL     1      -5.946 -12.000   0.000  0.00  0.00    +0.179 C 
ATOM     33  C   UNL     1      -4.647 -12.750   0.000  0.00  0.00    +0.074 C 
ATOM     34  C   UNL     1      -3.348 -12.000   0.000  0.00  0.00    +0.128 C 
ATOM     35  C   UNL     1      -3.348 -10.500   0.000  0.00  0.00    +0.063 C 
ATOM     36  C   UNL     1      -4.647  -9.750   0.000  0.00  0.00    +0.127 C 
ATOM     53  C   UNL     1      -4.647 -14.250   0.000  0.00  0.00    +0.015 C 
ATOM     54  O   UNL     1      -5.946 -10.500   0.000  0.00  0.00    -0.345 OA
ENDROOT
BRANCH   4   6
ATOM      6  C   UNL     1      -9.324 -11.390   0.000  0.00  0.00    +0.151 C 
ATOM      7  C   UNL     1      -9.012  -9.923   0.000  0.00  0.00    +0.037 C 
ATOM      8  C   UNL     1     -10.311  -9.173   0.000  0.00  0.00    +0.040 C 
ATOM      9  C   UNL     1     -11.426 -10.176   0.000  0.00  0.00    +0.094 C 
ATOM     29  C   UNL     1     -12.307  -8.963   0.000  0.00  0.00    +0.044 C 
ATOM     30  O   UNL     1     -10.816 -11.547   0.000  0.00  0.00    -0.365 OA
BRANCH   9  10
ATOM     10  C   UNL     1     -12.725 -10.926   0.000  0.00  0.00    +0.153 C 
ATOM     11  C   UNL     1     -12.882 -12.418   0.000  0.00  0.00    +0.020 C 
ATOM     12  C   UNL     1     -14.349 -12.730   0.000  0.00  0.00    +0.040 C 
ATOM     13  C   UNL     1     -15.099 -11.431   0.000  0.00  0.00    +0.148 C 
ATOM     27  C   UNL     1     -11.767 -13.422   0.000  0.00  0.00    +0.010 C 
ATOM     28  O   UNL     1     -14.095 -10.316   0.000  0.00  0.00    -0.368 OA
BRANCH  13  14
ATOM     14  C   UNL     1     -16.591 -11.274   0.000  0.00  0.00    +0.153 C 
ATOM     15  C   UNL     1     -17.472 -12.488   0.000  0.00  0.00    +0.018 C 
ATOM     16  C   UNL     1     -18.964 -12.331   0.000  0.00  0.00    +0.014 C 
ATOM     17  C   UNL     1     -19.574 -10.961   0.000  0.00  0.00    +0.048 C 
ATOM     18  C   UNL     1     -21.066 -10.804   0.000  0.00  0.00    +0.013 C 
ATOM     19  C   UNL     1     -18.692  -9.747   0.000  0.00  0.00    +0.194 C 
ATOM     25  C   UNL     1     -16.862 -13.858   0.000  0.00  0.00    +0.010 C 
ATOM     26  O   UNL     1     -17.201  -9.904   0.000  0.00  0.00    -0.340 OA
BRANCH  19  20
ATOM     20  O   UNL     1     -18.279  -8.305   0.000  0.00  0.00    -0.363 OA
ATOM     21  H   UNL     1     -16.824  -7.942   0.000  0.00  0.00    +0.213 HD
ENDBRANCH  19  20
BRANCH  19  22
ATOM     22  C   UNL     1     -20.041  -9.090   0.000  0.00  0.00    +0.220 C 
BRANCH  22  23
ATOM     23  O   UNL     1     -20.145  -7.593   0.000  0.00  0.00    -0.390 OA
ATOM     24  H   UNL     1     -21.494  -6.936   0.000  0.00  0.00    +0.210 HD
ENDBRANCH  22  23
ENDBRANCH  19  22
ENDBRANCH  13  14
ENDBRANCH   9  10
ENDBRANCH   4   6
BRANCH  34  51
ATOM     51  O   UNL     1      -2.049 -12.750   0.000  0.00  0.00    -0.379 OA
ATOM     52  C   UNL     1      -0.750 -12.000   0.000  0.00  0.00    +0.194 C 
ENDBRANCH  34  51
BRANCH  36  37
ATOM     37  C   UNL     1      -4.647  -8.250   0.000  0.00  0.00    +0.063 C 
BRANCH  37  38
ATOM     38  C   UNL     1      -5.946  -7.500   0.000  0.00  0.00    +0.121 C 
ATOM     39  C   UNL     1      -7.245  -8.250   0.000  0.00  0.00    +0.032 C 
ATOM     40  C   UNL     1      -8.544  -7.500   0.000  0.00  0.00    +0.008 C 
ATOM     41  C   UNL     1      -8.544  -6.000   0.000  0.00  0.00    +0.016 C 
ATOM     42  C   UNL     1      -9.843  -5.250   0.000  0.00  0.00    +0.010 C 
ATOM     43  C   UNL     1      -7.245  -5.250   0.000  0.00  0.00    +0.135 C 
ATOM     50  O   UNL     1      -5.946  -6.000   0.000  0.00  0.00    -0.372 OA
BRANCH  43  44
ATOM     44  C   UNL     1      -7.245  -3.750   0.000  0.00  0.00    +0.123 C 
ATOM     45  C   UNL     1      -8.544  -3.000   0.000  0.00  0.00    +0.022 C 
BRANCH  44  46
ATOM     46  C   UNL     1      -5.946  -3.000   0.000  0.00  0.00    +0.310 C 
ATOM     49  O   UNL     1      -4.647  -3.750   0.000  0.00  0.00    -0.251 OA
BRANCH  46  47
ATOM     47  O   UNL     1      -5.946  -1.500   0.000  0.00  0.00    -0.480 OA
ATOM     48  H   UNL     1      -4.647  -0.750   0.000  0.00  0.00    +0.295 HD
ENDBRANCH  46  47
ENDBRANCH  44  46
ENDBRANCH  43  44
ENDBRANCH  37  38
ENDBRANCH  36  37
TORSDOF 12