REMARK  Name = 267461
REMARK  5 active torsions:
REMARK  status: ('A' for Active; 'I' for Inactive)
REMARK    1  A    between atoms: C_3  and  O_17
REMARK    2  A    between atoms: C_14  and  C_18
REMARK    3  A    between atoms: C_15  and  C_19
REMARK    4  A    between atoms: C_19  and  C_20
REMARK    5  A    between atoms: C_20  and  O_22
REMARK                            x       y       z     vdW  Elec       q    Type
REMARK                         _______ _______ _______ _____ _____    ______ ____
ROOT
ATOM      1  C   UNL     1       0.750   4.500   0.000  0.00  0.00    +0.046 A 
ATOM      2  C   UNL     1       0.750   3.000   0.000  0.00  0.00    +0.004 A 
ATOM      3  C   UNL     1       2.049   2.250   0.000  0.00  0.00    +0.012 A 
ATOM      4  C   UNL     1       3.348   3.000   0.000  0.00  0.00    +0.036 A 
ATOM      5  C   UNL     1       4.647   2.250   0.000  0.00  0.00    +0.191 C 
ATOM      6  O   UNL     1       4.647   0.750   0.000  0.00  0.00    -0.287 OA
ATOM      7  C   UNL     1       5.946   3.000   0.000  0.00  0.00    +0.012 C 
ATOM      8  C   UNL     1       7.245   2.250   0.000  0.00  0.00    +0.071 C 
ATOM      9  C   UNL     1       8.544   3.000   0.000  0.00  0.00    +0.134 C 
ATOM     15  O   UNL     1       8.544   4.500   0.000  0.00  0.00    -0.368 OA
ATOM     16  C   UNL     1       7.245   5.250   0.000  0.00  0.00    +0.150 C 
ATOM     17  C   UNL     1       7.245   6.750   0.000  0.00  0.00    +0.043 C 
ATOM     18  C   UNL     1       5.946   4.500   0.000  0.00  0.00    +0.035 C 
ATOM     19  C   UNL     1       4.647   5.250   0.000  0.00  0.00    +0.196 C 
ATOM     20  O   UNL     1       4.647   6.750   0.000  0.00  0.00    -0.287 OA
ATOM     21  C   UNL     1       3.348   4.500   0.000  0.00  0.00    +0.074 A 
ATOM     22  C   UNL     1       2.049   5.250   0.000  0.00  0.00    +0.128 A 
ENDROOT
BRANCH  22  23
ATOM     23  O   UNL     1       2.049   6.750   0.000  0.00  0.00    -0.506 OA
ATOM     24  H   UNL     1       2.860   7.218   0.000  0.00  0.00    +0.292 HD
ENDBRANCH  22  23
BRANCH   9  10
ATOM     10  C   UNL     1       9.843   2.250   0.000  0.00  0.00    +0.152 C 
BRANCH  10  11
ATOM     11  C   UNL     1      11.142   3.000   0.000  0.00  0.00    +0.307 C 
ATOM     14  O   UNL     1      11.142   4.500   0.000  0.00  0.00    -0.251 OA
BRANCH  11  12
ATOM     12  O   UNL     1      12.441   2.250   0.000  0.00  0.00    -0.481 OA
ATOM     13  H   UNL     1      12.441   1.313   0.000  0.00  0.00    +0.295 HD
ENDBRANCH  11  12
ENDBRANCH  10  11
ENDBRANCH   9  10
TORSDOF 4