REMARK  Name = 118976
REMARK  2 active torsions:
REMARK  status: ('A' for Active; 'I' for Inactive)
REMARK    1  A    between atoms: C_2  and  C_7
REMARK    2  A    between atoms: C_7  and  N_8
REMARK                            x       y       z     vdW  Elec       q    Type
REMARK                         _______ _______ _______ _____ _____    ______ ____
ROOT
ATOM      1  C   UNL     1      -5.471  -4.024   0.000  0.00  0.00    +0.005 A 
ATOM      2  C   UNL     1      -4.172  -4.774   0.000  0.00  0.00    -0.025 A 
ATOM      7  C   UNL     1      -4.172  -6.274   0.000  0.00  0.00    +0.005 A 
ATOM      8  C   UNL     1      -5.471  -7.024   0.000  0.00  0.00    +0.000 A 
ATOM      9  C   UNL     1      -6.770  -6.274   0.000  0.00  0.00    +0.000 A 
ATOM     10  C   UNL     1      -6.770  -4.774   0.000  0.00  0.00    +0.000 A 
ENDROOT
BRANCH   2   3
ATOM      3  C   UNL     1      -2.873  -4.024   0.000  0.00  0.00    +0.188 C 
BRANCH   3   4
ATOM      4  N   UNL     1      -1.573  -4.774   0.000  0.00  0.00    -0.230 NA
ATOM      5  C   UNL     1      -0.275  -4.024   0.000  0.00  0.00    +0.036 C 
ATOM      6  S   UNL     1       1.025  -3.275   0.000  0.00  0.00    +0.020 S 
ENDBRANCH   3   4
ENDBRANCH   2   3
TORSDOF 2