REMARK  Name = 4114
REMARK  2 active torsions:
REMARK  status: ('A' for Active; 'I' for Inactive)
REMARK    1  A    between atoms: N_5  and  C_14
REMARK    2  A    between atoms: C_14  and  S_16
REMARK                            x       y       z     vdW  Elec       q    Type
REMARK                         _______ _______ _______ _____ _____    ______ ____
ROOT
ATOM      1  O   UNL     1       2.363   3.730   0.000  0.00  0.00    -0.377 OA
ATOM      2  C   UNL     1       3.662   2.980   0.000  0.00  0.00    +0.178 C 
ATOM      3  C   UNL     1       4.961   3.730   0.000  0.00  0.00    +0.134 C 
ATOM      4  N   UNL     1       4.961   5.230   0.000  0.00  0.00    -0.315 N 
ATOM      9  C   UNL     1       3.662   5.980   0.000  0.00  0.00    +0.134 C 
ATOM     10  C   UNL     1       2.363   5.230   0.000  0.00  0.00    +0.178 C 
ENDROOT
BRANCH   4   5
ATOM      5  C   UNL     1       6.260   5.980   0.000  0.00  0.00    +0.106 C 
ATOM      8  S   UNL     1       7.559   5.230   0.000  0.00  0.00    -0.028 S 
BRANCH   5   6
ATOM      6  S   UNL     1       6.260   7.480   0.000  0.00  0.00    -0.120 S 
ATOM      7  H   UNL     1       7.438   8.160   0.000  0.00  0.00    +0.109 HD
ENDBRANCH   5   6
ENDBRANCH   4   5
TORSDOF 2