REMARK  Name = 383468
REMARK  8 active torsions:
REMARK  status: ('A' for Active; 'I' for Inactive)
REMARK    1  A    between atoms: C_2  and  O_17
REMARK    2  A    between atoms: C_4  and  C_18
REMARK    3  A    between atoms: C_4  and  C_19
REMARK    4  A    between atoms: C_5  and  C_20
REMARK    5  A    between atoms: C_7  and  C_22
REMARK    6  A    between atoms: C_14  and  O_25
REMARK    7  A    between atoms: C_19  and  O_21
REMARK    8  A    between atoms: C_22  and  C_23
REMARK                            x       y       z     vdW  Elec       q    Type
REMARK                         _______ _______ _______ _____ _____    ______ ____
ROOT
ATOM      1  C   UNL     1       6.445  -8.828   0.000  0.00  0.00    +0.032 C 
ATOM      2  C   UNL     1       7.744  -8.078   0.000  0.00  0.00    +0.123 C 
ATOM      5  C   UNL     1       7.744  -6.578   0.000  0.00  0.00    +0.020 C 
ATOM      9  C   UNL     1       9.221  -6.839   0.000  0.00  0.00    +0.016 C 
ATOM     10  C   UNL     1       6.445  -5.828   0.000  0.00  0.00    +0.006 C 
ATOM     11  C   UNL     1       6.445  -4.328   0.000  0.00  0.00    +0.009 C 
ATOM     12  C   UNL     1       5.146  -3.578   0.000  0.00  0.00    +0.031 C 
ATOM     13  C   UNL     1       3.847  -4.328   0.000  0.00  0.00    -0.073 C 
ATOM     14  C   UNL     1       2.548  -3.578   0.000  0.00  0.00    +0.008 C 
ATOM     15  C   UNL     1       3.847  -5.828   0.000  0.00  0.00    +0.024 C 
ATOM     26  C   UNL     1       5.146  -6.578   0.000  0.00  0.00    -0.022 C 
ATOM     27  C   UNL     1       3.847  -7.328   0.000  0.00  0.00    +0.012 C 
ATOM     28  C   UNL     1       5.146  -8.078   0.000  0.00  0.00    +0.010 C 
ENDROOT
BRANCH   2   3
ATOM      3  O   UNL     1       9.043  -8.828   0.000  0.00  0.00    -0.391 OA
ATOM      4  H   UNL     1       9.043  -9.798   0.000  0.00  0.00    +0.210 HD
ENDBRANCH   2   3
BRANCH   5   6
ATOM      6  C   UNL     1       8.257  -5.169   0.000  0.00  0.00    +0.165 C 
BRANCH   6   7
ATOM      7  O   UNL     1       7.293  -4.020   0.000  0.00  0.00    -0.394 OA
ATOM      8  H   UNL     1       7.624  -3.108   0.000  0.00  0.00    +0.209 HD
ENDBRANCH   6   7
ENDBRANCH   5   6
BRANCH  15  16
ATOM     16  C   UNL     1       2.548  -6.578   0.000  0.00  0.00    +0.036 C 
BRANCH  16  17
ATOM     17  C   UNL     1       1.249  -5.828   0.000  0.00  0.00    -0.013 C 
ATOM     18  C   UNL     1       1.249  -4.328   0.000  0.00  0.00    +0.064 C 
ATOM     19  C   UNL     1       2.462  -3.446   0.000  0.00  0.00    +0.338 C 
ATOM     20  O   UNL     1       1.999  -2.020   0.000  0.00  0.00    -0.458 OA
ATOM     21  C   UNL     1       0.499  -2.020   0.000  0.00  0.00    +0.268 C 
ATOM     22  O   UNL     1       3.889  -3.910   0.000  0.00  0.00    -0.245 OA
ATOM     23  C   UNL     1       0.035  -3.446   0.000  0.00  0.00    +0.188 C 
BRANCH  23  24
ATOM     24  O   UNL     1      -1.391  -3.910   0.000  0.00  0.00    -0.384 OA
ATOM     25  H   UNL     1      -2.112  -3.261   0.000  0.00  0.00    +0.210 HD
ENDBRANCH  23  24
ENDBRANCH  16  17
ENDBRANCH  15  16
TORSDOF 6