REMARK  Name = 140911
REMARK  4 active torsions:
REMARK  status: ('A' for Active; 'I' for Inactive)
REMARK    1  A    between atoms: C_2  and  S_16
REMARK    2  A    between atoms: C_6  and  N_19
REMARK    3  A    between atoms: C_9  and  S_16
REMARK    4  A    between atoms: C_12  and  N_13
REMARK                            x       y       z     vdW  Elec       q    Type
REMARK                         _______ _______ _______ _____ _____    ______ ____
ROOT
ATOM      3  S   UNL     1      -5.672   0.676   0.000  0.00  0.00    +0.025 S 
ATOM      4  O   UNL     1      -6.422  -0.623   0.000  0.00  0.00    -0.164 OA
ATOM      5  O   UNL     1      -4.922   1.976   0.000  0.00  0.00    -0.164 OA
ENDROOT
BRANCH   3   2
ATOM      1  C   UNL     1      -3.074   0.676   0.000  0.00  0.00    +0.027 A 
ATOM      2  C   UNL     1      -4.373  -0.074   0.000  0.00  0.00    +0.096 A 
ATOM     15  C   UNL     1      -4.373  -1.574   0.000  0.00  0.00    +0.056 A 
ATOM     16  C   UNL     1      -3.074  -2.324   0.000  0.00  0.00    +0.076 A 
ATOM     20  C   UNL     1      -1.775  -1.574   0.000  0.00  0.00    +0.028 A 
ATOM     21  C   UNL     1      -1.775  -0.074   0.000  0.00  0.00    +0.004 A 
BRANCH  16  17
ATOM     17  N   UNL     1      -3.074  -3.824   0.000  0.00  0.00    -0.197 NA
ATOM     18  C   UNL     1      -4.373  -4.574   0.000  0.00  0.00    +0.041 C 
ATOM     19  S   UNL     1      -5.672  -5.324   0.000  0.00  0.00    +0.021 S 
ENDBRANCH  16  17
ENDBRANCH   3   2
BRANCH   3   6
ATOM      6  C   UNL     1      -6.971   1.426   0.000  0.00  0.00    +0.096 A 
ATOM      7  C   UNL     1      -8.270   0.676   0.000  0.00  0.00    +0.056 A 
ATOM      8  C   UNL     1      -9.569   1.426   0.000  0.00  0.00    +0.076 A 
ATOM     12  C   UNL     1      -9.569   2.926   0.000  0.00  0.00    +0.028 A 
ATOM     13  C   UNL     1      -8.270   3.676   0.000  0.00  0.00    +0.004 A 
ATOM     14  C   UNL     1      -6.971   2.926   0.000  0.00  0.00    +0.027 A 
BRANCH   8   9
ATOM      9  N   UNL     1     -10.868   0.676   0.000  0.00  0.00    -0.197 NA
ATOM     10  C   UNL     1     -12.167   1.426   0.000  0.00  0.00    +0.041 C 
ATOM     11  S   UNL     1     -13.466   2.176   0.000  0.00  0.00    +0.021 S 
ENDBRANCH   8   9
ENDBRANCH   3   6
TORSDOF 4