REMARK  Name = 211489
REMARK  6 active torsions:
REMARK  status: ('A' for Active; 'I' for Inactive)
REMARK    1  A    between atoms: C_9  and  C_11
REMARK    2  A    between atoms: C_14  and  C_20
REMARK    3  A    between atoms: C_22  and  O_31
REMARK    4  A    between atoms: C_24  and  O_33
REMARK    5  A    between atoms: O_31  and  C_32
REMARK    6  A    between atoms: O_33  and  C_34
REMARK                            x       y       z     vdW  Elec       q    Type
REMARK                         _______ _______ _______ _____ _____    ______ ____
ROOT
ATOM      1  O   UNL     1     -11.777   5.398   0.000  0.00  0.00    -0.454 OA
ATOM      2  C   UNL     1     -11.777   3.898   0.000  0.00  0.00    +0.150 A 
ATOM      3  C   UNL     1     -13.076   3.148   0.000  0.00  0.00    +0.060 A 
ATOM      4  C   UNL     1     -14.375   3.898   0.000  0.00  0.00    +0.015 A 
ATOM      5  C   UNL     1     -15.674   3.148   0.000  0.00  0.00    +0.001 A 
ATOM      6  C   UNL     1     -15.674   1.648   0.000  0.00  0.00    +0.004 A 
ATOM      7  C   UNL     1     -14.375   0.898   0.000  0.00  0.00    +0.047 A 
ATOM      8  C   UNL     1     -13.076   1.648   0.000  0.00  0.00    +0.143 A 
ATOM      9  O   UNL     1     -11.777   0.898   0.000  0.00  0.00    -0.422 OA
ATOM     10  C   UNL     1     -10.478   1.648   0.000  0.00  0.00    +0.345 A 
ATOM     11  O   UNL     1      -9.179   0.898   0.000  0.00  0.00    -0.245 OA
ATOM     12  C   UNL     1     -10.478   3.148   0.000  0.00  0.00    +0.091 A 
ATOM     13  C   UNL     1      -9.179   3.898   0.000  0.00  0.00    +0.086 C 
ATOM     24  C   UNL     1      -9.179   5.398   0.000  0.00  0.00    +0.033 C 
ATOM     25  C   UNL     1     -10.478   6.148   0.000  0.00  0.00    +0.133 C 
ENDROOT
BRANCH  25  26
ATOM     26  C   UNL     1     -10.478   7.648   0.000  0.00  0.00    +0.021 A 
ATOM     27  C   UNL     1      -9.179   8.398   0.000  0.00  0.00    +0.061 A 
ATOM     28  C   UNL     1      -9.179   9.898   0.000  0.00  0.00    +0.167 A 
ATOM     29  C   UNL     1     -10.478  10.648   0.000  0.00  0.00    +0.166 A 
ATOM     30  C   UNL     1     -11.777   9.898   0.000  0.00  0.00    +0.050 A 
ATOM     31  O   UNL     1     -10.166  12.115   0.000  0.00  0.00    -0.453 OA
ATOM     32  C   UNL     1      -8.674  12.272   0.000  0.00  0.00    +0.466 C 
ATOM     33  O   UNL     1      -8.064  10.902   0.000  0.00  0.00    -0.453 OA
ATOM     34  C   UNL     1     -11.777   8.398   0.000  0.00  0.00    +0.015 A 
ENDBRANCH  25  26
BRANCH  13  14
ATOM     14  C   UNL     1      -7.880   3.148   0.000  0.00  0.00    -0.032 A 
ATOM     15  C   UNL     1      -7.880   1.648   0.000  0.00  0.00    +0.008 A 
ATOM     16  C   UNL     1      -6.581   0.898   0.000  0.00  0.00    +0.050 A 
ATOM     17  C   UNL     1      -5.282   1.648   0.000  0.00  0.00    +0.162 A 
ATOM     20  C   UNL     1      -5.282   3.148   0.000  0.00  0.00    +0.162 A 
ATOM     23  C   UNL     1      -6.581   3.898   0.000  0.00  0.00    +0.054 A 
BRANCH  17  18
ATOM     18  O   UNL     1      -3.983   0.898   0.000  0.00  0.00    -0.491 OA
ATOM     19  C   UNL     1      -2.684   1.648   0.000  0.00  0.00    +0.277 C 
ENDBRANCH  17  18
BRANCH  20  21
ATOM     21  O   UNL     1      -3.983   3.898   0.000  0.00  0.00    -0.491 OA
ATOM     22  C   UNL     1      -2.684   3.148   0.000  0.00  0.00    +0.277 C 
ENDBRANCH  20  21
ENDBRANCH  13  14
TORSDOF 4