REMARK  Name = 267712
REMARK  7 active torsions:
REMARK  status: ('A' for Active; 'I' for Inactive)
REMARK    1  A    between atoms: C_1  and  C_3
REMARK    2  A    between atoms: C_1  and  C_30
REMARK    3  A    between atoms: C_3  and  O_4
REMARK    4  A    between atoms: O_4  and  C_6
REMARK    5  A    between atoms: C_9  and  C_32
REMARK    6  A    between atoms: C_17  and  C_33
REMARK    7  A    between atoms: C_22  and  C_25
REMARK                            x       y       z     vdW  Elec       q    Type
REMARK                         _______ _______ _______ _____ _____    ______ ____
ROOT
ATOM      6  C   UNL     1       2.809   5.635   0.000  0.00  0.00    +0.177 C 
ATOM      7  C   UNL     1       4.108   4.885   0.000  0.00  0.00    +0.048 C 
ATOM      8  C   UNL     1       5.407   5.635   0.000  0.00  0.00    -0.001 C 
ATOM      9  C   UNL     1       6.706   4.885   0.000  0.00  0.00    +0.004 C 
ATOM     10  C   UNL     1       8.005   5.635   0.000  0.00  0.00    +0.007 C 
ATOM     11  C   UNL     1       8.005   7.135   0.000  0.00  0.00    +0.028 C 
ATOM     12  C   UNL     1       9.304   7.885   0.000  0.00  0.00    +0.105 C 
ATOM     13  O   UNL     1       9.616   6.418   0.000  0.00  0.00    -0.364 OA
ATOM     14  C   UNL     1      10.731   7.422   0.000  0.00  0.00    +0.152 C 
ATOM     15  C   UNL     1      11.612   8.635   0.000  0.00  0.00    +0.043 C 
ATOM     16  C   UNL     1      10.731   9.848   0.000  0.00  0.00    +0.033 C 
ATOM     24  C   UNL     1       9.304   9.385   0.000  0.00  0.00    +0.007 C 
ATOM     25  C   UNL     1       9.461  10.877   0.000  0.00  0.00    +0.015 C 
ATOM     26  C   UNL     1       8.005  10.135   0.000  0.00  0.00    +0.010 C 
ATOM     27  C   UNL     1       6.706   9.385   0.000  0.00  0.00    +0.005 C 
ATOM     28  C   UNL     1       6.706   7.885   0.000  0.00  0.00    +0.001 C 
ATOM     29  C   UNL     1       5.407   7.135   0.000  0.00  0.00    -0.026 C 
ATOM     30  C   UNL     1       5.407   8.635   0.000  0.00  0.00    +0.012 C 
ATOM     31  C   UNL     1       4.108   7.885   0.000  0.00  0.00    +0.011 C 
ATOM     32  C   UNL     1       2.809   7.135   0.000  0.00  0.00    +0.045 C 
ENDROOT
BRANCH  16  17
ATOM     17  C   UNL     1      11.194  11.275   0.000  0.00  0.00    -0.008 A 
ATOM     18  C   UNL     1      12.661  11.587   0.000  0.00  0.00    +0.203 A 
ATOM     19  O   UNL     1      13.125  13.014   0.000  0.00  0.00    -0.430 OA
ATOM     20  C   UNL     1      12.121  14.128   0.000  0.00  0.00    +0.337 A 
ATOM     21  O   UNL     1      12.585  15.555   0.000  0.00  0.00    -0.245 OA
ATOM     22  C   UNL     1      10.654  13.816   0.000  0.00  0.00    +0.092 A 
ATOM     23  C   UNL     1      10.190  12.390   0.000  0.00  0.00    +0.014 A 
ENDBRANCH  16  17
BRANCH   6   5
ATOM      5  O   UNL     1       1.510   4.885   0.000  0.00  0.00    -0.458 OA
BRANCH   5   4
ATOM      4  C   UNL     1       0.211   5.635   0.000  0.00  0.00    +0.335 C 
ATOM     33  O   UNL     1       0.211   7.135   0.000  0.00  0.00    -0.245 OA
BRANCH   4   1
ATOM      1  C   UNL     1      -1.088   4.885   0.000  0.00  0.00    +0.026 C 
ATOM      2  C   UNL     1      -1.088   3.385   0.000  0.00  0.00    +0.019 C 
ATOM      3  C   UNL     1      -2.387   5.635   0.000  0.00  0.00    +0.050 C 
ENDBRANCH   4   1
ENDBRANCH   5   4
ENDBRANCH   6   5
TORSDOF 4