REMARK  Name = 45575
REMARK  3 active torsions:
REMARK  status: ('A' for Active; 'I' for Inactive)
REMARK    1  A    between atoms: N_1  and  C_11
REMARK    2  A    between atoms: N_2  and  C_13
REMARK    3  A    between atoms: C_15  and  O_23
REMARK                            x       y       z     vdW  Elec       q    Type
REMARK                         _______ _______ _______ _____ _____    ______ ____
ROOT
ATOM      1  N   UNL     1      -1.384   0.759   0.000  0.00  0.00    -0.149 NA
ATOM     12  N   UNL     1      -1.406  -0.741   0.000  0.00  0.00    -0.145 NA
ENDROOT
BRANCH   1   2
ATOM      2  C   UNL     1      -2.671   1.528   0.000  0.00  0.00    +0.094 A 
ATOM      3  C   UNL     1      -3.981   0.798   0.000  0.00  0.00    +0.009 A 
ATOM      4  C   UNL     1      -4.004  -0.702   0.000  0.00  0.00    +0.010 A 
ATOM      5  C   UNL     1      -5.314  -1.432   0.000  0.00  0.00    +0.001 A 
ATOM      6  C   UNL     1      -6.602  -0.662   0.000  0.00  0.00    +0.001 A 
ATOM      7  C   UNL     1      -6.579   0.837   0.000  0.00  0.00    +0.008 A 
ATOM      8  C   UNL     1      -5.269   1.568   0.000  0.00  0.00    -0.016 A 
ATOM      9  C   UNL     1      -5.246   3.067   0.000  0.00  0.00    +0.008 A 
ATOM     10  C   UNL     1      -3.936   3.798   0.000  0.00  0.00    +0.003 A 
ATOM     11  C   UNL     1      -2.648   3.028   0.000  0.00  0.00    +0.030 A 
ENDBRANCH   1   2
BRANCH  12  13
ATOM     13  C   UNL     1      -0.272  -1.722   0.000  0.00  0.00    +0.135 A 
ATOM     14  C   UNL     1      -0.554  -3.195   0.000  0.00  0.00    +0.013 A 
ATOM     15  C   UNL     1      -1.972  -3.687   0.000  0.00  0.00    +0.011 A 
ATOM     16  C   UNL     1      -2.254  -5.160   0.000  0.00  0.00    +0.001 A 
ATOM     17  C   UNL     1      -1.120  -6.142   0.000  0.00  0.00    +0.001 A 
ATOM     18  C   UNL     1       0.297  -5.650   0.000  0.00  0.00    +0.008 A 
ATOM     19  C   UNL     1       0.580  -4.177   0.000  0.00  0.00    -0.016 A 
ATOM     20  C   UNL     1       1.997  -3.685   0.000  0.00  0.00    +0.012 A 
ATOM     21  C   UNL     1       2.280  -2.212   0.000  0.00  0.00    +0.048 A 
ATOM     22  C   UNL     1       1.145  -1.231   0.000  0.00  0.00    +0.144 A 
BRANCH  22  23
ATOM     23  O   UNL     1       1.428   0.243   0.000  0.00  0.00    -0.505 OA
ATOM     24  H   UNL     1       2.313   0.550   0.000  0.00  0.00    +0.292 HD
ENDBRANCH  22  23
ENDBRANCH  12  13
TORSDOF 3