REMARK  Name = 11897
REMARK  2 active torsions:
REMARK  status: ('A' for Active; 'I' for Inactive)
REMARK    1  A    between atoms: C_4  and  C_13
REMARK    2  A    between atoms: C_8  and  O_14
REMARK                            x       y       z     vdW  Elec       q    Type
REMARK                         _______ _______ _______ _____ _____    ______ ____
ROOT
ATOM      1  O   UNL     1      -4.422  -0.750   0.000  0.00  0.00    -0.287 OA
ATOM      2  C   UNL     1      -4.422  -2.250   0.000  0.00  0.00    +0.193 C 
ATOM      3  C   UNL     1      -5.721  -3.000   0.000  0.00  0.00    +0.033 A 
ATOM      4  C   UNL     1      -7.021  -2.250   0.000  0.00  0.00    +0.012 A 
ATOM      5  C   UNL     1      -8.319  -3.000   0.000  0.00  0.00    +0.001 A 
ATOM      6  C   UNL     1      -8.319  -4.500   0.000  0.00  0.00    +0.001 A 
ATOM      7  C   UNL     1      -7.021  -5.250   0.000  0.00  0.00    +0.012 A 
ATOM      8  C   UNL     1      -5.721  -4.500   0.000  0.00  0.00    +0.036 A 
ATOM      9  C   UNL     1      -4.422  -5.250   0.000  0.00  0.00    +0.228 C 
ATOM     10  C   UNL     1      -3.123  -4.500   0.000  0.00  0.00    +0.171 C 
ATOM     13  O   UNL     1      -4.422  -6.750   0.000  0.00  0.00    -0.283 OA
ATOM     14  C   UNL     1      -3.123  -3.000   0.000  0.00  0.00    +0.042 C 
ATOM     15  C   UNL     1      -1.824  -2.250   0.000  0.00  0.00    +0.052 C 
ENDROOT
BRANCH  10  11
ATOM     11  O   UNL     1      -1.824  -5.250   0.000  0.00  0.00    -0.503 OA
ATOM     12  H   UNL     1      -1.824  -6.187   0.000  0.00  0.00    +0.292 HD
ENDBRANCH  10  11
TORSDOF 1