REMARK  Name = 128734
REMARK  0 active torsions:
REMARK  status: ('A' for Active; 'I' for Inactive)
REMARK                            x       y       z     vdW  Elec       q    Type
REMARK                         _______ _______ _______ _____ _____    ______ ____
ROOT
ATOM      1  N   UNL     1     -10.342  -2.239   0.000  0.00  0.00    -0.261 NA
ATOM      2  C   UNL     1     -10.342  -0.739   0.000  0.00  0.00    +0.113 A 
ATOM      3  C   UNL     1      -9.043   0.011   0.000  0.00  0.00    +0.049 A 
ATOM      4  C   UNL     1      -7.744  -0.739   0.000  0.00  0.00    +0.095 A 
ATOM      5  C   UNL     1      -7.744  -2.239   0.000  0.00  0.00    +0.113 A 
ATOM      6  N   UNL     1      -6.317  -2.703   0.000  0.00  0.00    -0.192 N 
ATOM      7  C   UNL     1      -5.435  -1.489   0.000  0.00  0.00    +0.166 A 
ATOM      8  C   UNL     1      -3.944  -1.646   0.000  0.00  0.00    +0.046 A 
ATOM      9  C   UNL     1      -3.333  -3.016   0.000  0.00  0.00    +0.098 A 
ATOM     10  C   UNL     1      -1.842  -3.173   0.000  0.00  0.00    +0.030 A 
ATOM     11  C   UNL     1      -0.960  -1.959   0.000  0.00  0.00    +0.002 A 
ATOM     12  C   UNL     1      -1.570  -0.589   0.000  0.00  0.00    +0.001 A 
ATOM     13  N   UNL     1      -4.215  -4.230   0.000  0.00  0.00    -0.131 NA
ATOM     14  C   UNL     1      -3.062  -0.432   0.000  0.00  0.00    +0.014 A 
ATOM     15  N   UNL     1      -5.707  -4.073   0.000  0.00  0.00    -0.058 NA
ATOM     16  N   UNL     1      -6.317  -0.276   0.000  0.00  0.00    -0.225 NA
ATOM     17  C   UNL     1      -9.043  -2.989   0.000  0.00  0.00    +0.140 A 
ENDROOT
TORSDOF 0