REMARK  Name = 253995
REMARK  8 active torsions:
REMARK  status: ('A' for Active; 'I' for Inactive)
REMARK    1  A    between atoms: C_7  and  C_11
REMARK    2  A    between atoms: C_15  and  C_23
REMARK    3  A    between atoms: C_24  and  C_33
REMARK    4  A    between atoms: C_25  and  C_35
REMARK    5  A    between atoms: C_26  and  C_37
REMARK    6  A    between atoms: C_27  and  C_38
REMARK    7  A    between atoms: C_28  and  C_39
REMARK    8  A    between atoms: C_29  and  C_40
REMARK                            x       y       z     vdW  Elec       q    Type
REMARK                         _______ _______ _______ _____ _____    ______ ____
ROOT
ATOM      2  C   UNL     1      -3.717  -1.503   0.000  0.00  0.00    +0.000 C 
ATOM      3  C   UNL     1      -4.707  -0.376   0.000  0.00  0.00    -1.000 C 
ATOM      4  C   UNL     1      -4.576   1.119   0.000  0.00  0.00    +0.000 C 
ATOM      5  O   UNL     1      -2.624  -0.329   0.000  0.00  0.00    +0.000 OA
ATOM      6 EU   UNL     1      -1.137  -0.527   0.000  0.00  0.00    +0.000 Eu
ATOM      7  O   UNL     1      -0.829   0.941   0.000  0.00  0.00    +0.000 OA
ATOM      8  C   UNL     1       0.445   1.733   0.000  0.00  0.00    +0.000 C 
ATOM      9  C   UNL     1       1.898   1.359   0.000  0.00  0.00    -1.000 C 
ATOM     10  C   UNL     1       2.632   0.051   0.000  0.00  0.00    +0.000 C 
ATOM     21  O   UNL     1      -1.768   1.492   0.000  0.00  0.00    +0.000 OA
ATOM     22  C   UNL     1      -0.960   3.784   0.000  0.00  0.00    +0.000 C 
ATOM     23  C   UNL     1      -2.426   3.469   0.000  0.00  0.00    -1.000 C 
ATOM     24  C   UNL     1      -3.212   2.191   0.000  0.00  0.00    +0.000 C 
ATOM     35  O   UNL     1      -1.382  -2.429   0.000  0.00  0.00    +0.000 OA
ATOM     36  C   UNL     1      -0.516  -3.654   0.000  0.00  0.00    +0.000 C 
ATOM     37  C   UNL     1       0.978  -3.515   0.000  0.00  0.00    -1.000 C 
ATOM     38  C   UNL     1       1.605  -2.153   0.000  0.00  0.00    +0.000 C 
ATOM     49  O   UNL     1       0.739  -0.928   0.000  0.00  0.00    +0.000 OA
ATOM     50  O   UNL     1      -2.831   0.740   0.000  0.00  0.00    +0.000 OA
ATOM     51  O   UNL     1       0.203   0.147   0.000  0.00  0.00    +0.000 OA
ATOM     58  O   UNL     1      -2.219  -1.566   0.000  0.00  0.00    +0.000 OA
ENDROOT
BRANCH  10  11
ATOM     11  C   UNL     1       4.115   0.273   0.000  0.00  0.00    +0.000 A 
ATOM     12  C   UNL     1       5.049  -0.901   0.000  0.00  0.00    +0.000 A 
ATOM     13  C   UNL     1       6.533  -0.679   0.000  0.00  0.00    +0.000 A 
ATOM     14  C   UNL     1       7.082   0.716   0.000  0.00  0.00    +0.000 A 
ATOM     15  C   UNL     1       6.148   1.890   0.000  0.00  0.00    +0.000 A 
ATOM     16  C   UNL     1       4.665   1.668   0.000  0.00  0.00    +0.000 A 
ENDBRANCH  10  11
BRANCH  24  25
ATOM     25  C   UNL     1      -7.252   2.789   0.000  0.00  0.00    +0.000 A 
ATOM     26  C   UNL     1      -7.803   4.184   0.000  0.00  0.00    +0.000 A 
ATOM     27  C   UNL     1      -9.287   4.404   0.000  0.00  0.00    +0.000 A 
ATOM     28  C   UNL     1     -10.219   3.229   0.000  0.00  0.00    +0.000 A 
ATOM     29  C   UNL     1      -9.668   1.834   0.000  0.00  0.00    +0.000 A 
ATOM     30  C   UNL     1      -8.184   1.614   0.000  0.00  0.00    +0.000 A 
ENDBRANCH  24  25
BRANCH  38  39
ATOM     39  C   UNL     1       2.838  -3.007   0.000  0.00  0.00    +0.000 A 
ATOM     40  C   UNL     1       2.715  -4.502   0.000  0.00  0.00    +0.000 A 
ATOM     41  C   UNL     1       3.948  -5.356   0.000  0.00  0.00    +0.000 A 
ATOM     42  C   UNL     1       5.304  -4.715   0.000  0.00  0.00    +0.000 A 
ATOM     43  C   UNL     1       5.427  -3.220   0.000  0.00  0.00    +0.000 A 
ATOM     44  C   UNL     1       4.194  -2.366   0.000  0.00  0.00    +0.000 A 
ENDBRANCH  38  39
BRANCH   4  52
ATOM     52  C   UNL     1      -6.252   4.843   0.000  0.00  0.00    +0.000 A 
ATOM     53  C   UNL     1      -5.375   6.060   0.000  0.00  0.00    +0.000 A 
ATOM     54  C   UNL     1      -5.990   7.428   0.000  0.00  0.00    +0.000 A 
ATOM     55  C   UNL     1      -7.482   7.579   0.000  0.00  0.00    +0.000 A 
ATOM     56  C   UNL     1      -8.359   6.362   0.000  0.00  0.00    +0.000 A 
ATOM     57  C   UNL     1      -7.744   4.994   0.000  0.00  0.00    +0.000 A 
ENDBRANCH   4  52
BRANCH   2   1
ATOM      1  C   UNL     1      -4.590  -2.723   0.000  0.00  0.00    +0.000 C 
ATOM     59  F   UNL     1      -6.083  -2.577   0.000  0.00  0.00    +0.000 F 
ATOM     60  F   UNL     1      -5.462  -3.943   0.000  0.00  0.00    +0.000 F 
ATOM     61  F   UNL     1      -3.969  -4.089   0.000  0.00  0.00    +0.000 F 
ENDBRANCH   2   1
BRANCH   8  17
ATOM     17  C   UNL     1       1.435   2.860   0.000  0.00  0.00    +0.000 C 
ATOM     18  F   UNL     1       2.906   2.566   0.000  0.00  0.00    +0.000 F 
ATOM     19  F   UNL     1       2.425   3.987   0.000  0.00  0.00    +0.000 F 
ATOM     20  F   UNL     1       0.954   4.281   0.000  0.00  0.00    +0.000 F 
ENDBRANCH   8  17
BRANCH  22  31
ATOM     31  C   UNL     1      -0.996   5.284   0.000  0.00  0.00    +0.000 C 
ATOM     32  F   UNL     1       0.285   6.064   0.000  0.00  0.00    +0.000 F 
ATOM     33  F   UNL     1      -1.031   6.783   0.000  0.00  0.00    +0.000 F 
ATOM     34  F   UNL     1      -2.312   6.003   0.000  0.00  0.00    +0.000 F 
ENDBRANCH  22  31
BRANCH  36  45
ATOM     45  C   UNL     1      -0.897  -5.104   0.000  0.00  0.00    +0.000 C 
ATOM     46  F   UNL     1      -2.344  -5.500   0.000  0.00  0.00    +0.000 F 
ATOM     47  F   UNL     1      -1.278  -6.555   0.000  0.00  0.00    +0.000 F 
ATOM     48  F   UNL     1       0.169  -6.160   0.000  0.00  0.00    +0.000 F 
ENDBRANCH  36  45
TORSDOF 8