REMARK  Name = 180973
REMARK  20 active torsions:
REMARK  status: ('A' for Active; 'I' for Inactive)
REMARK    1  A    between atoms: O_1  and  C_9
REMARK    2  A    between atoms: O_1  and  C_37
REMARK    3  A    between atoms: C_2  and  C_11
REMARK    4  A    between atoms: C_2  and  C_30
REMARK    5  A    between atoms: C_3  and  C_4
REMARK    6  A    between atoms: C_3  and  C_24
REMARK    7  A    between atoms: C_4  and  C_36
REMARK    8  A    between atoms: C_5  and  C_6
REMARK    9  A    between atoms: C_5  and  C_7
REMARK   10  A    between atoms: C_5  and  O_14
REMARK   11  A    between atoms: C_5  and  C_15
REMARK   12  A    between atoms: C_6  and  C_21
REMARK   13  A    between atoms: C_7  and  C_18
REMARK   14  A    between atoms: C_15  and  O_17
REMARK   15  A    between atoms: C_18  and  O_20
REMARK   16  A    between atoms: C_21  and  O_23
REMARK   17  A    between atoms: C_37  and  C_38
REMARK   18  A    between atoms: C_38  and  N_39
REMARK   19  A    between atoms: N_39  and  C_40
REMARK   20  A    between atoms: N_39  and  C_41
REMARK                            x       y       z     vdW  Elec       q    Type
REMARK                         _______ _______ _______ _____ _____    ______ ____
ROOT
ATOM      1  C   UNL     1     -12.525 -12.979   0.000  0.00  0.00    +0.182 C 
ENDROOT
BRANCH   1  12
ATOM     12  C   UNL     1     -12.525 -14.479   0.000  0.00  0.00    +0.338 C 
ATOM     15  O   UNL     1     -11.226 -15.229   0.000  0.00  0.00    -0.248 OA
BRANCH  12  13
ATOM     13  O   UNL     1     -13.824 -15.229   0.000  0.00  0.00    -0.479 OA
ATOM     14  H   UNL     1     -14.635 -14.761   0.000  0.00  0.00    +0.295 HD
ENDBRANCH  12  13
ENDBRANCH   1  12
BRANCH   1  16
ATOM     16  O   UNL     1     -12.525 -11.479   0.000  0.00  0.00    -0.376 OA
ATOM     17  H   UNL     1     -11.685 -10.994   0.000  0.00  0.00    +0.211 HD
ENDBRANCH   1  16
BRANCH   1   2
ATOM      2  C   UNL     1     -14.025 -12.979   0.000  0.00  0.00    +0.167 C 
BRANCH   2   3
ATOM      3  C   UNL     1     -14.538 -11.570   0.000  0.00  0.00    +0.308 C 
ATOM      6  O   UNL     1     -13.574 -10.421   0.000  0.00  0.00    -0.251 OA
BRANCH   3   4
ATOM      4  O   UNL     1     -16.015 -11.309   0.000  0.00  0.00    -0.481 OA
ATOM      5  H   UNL     1     -16.336 -10.429   0.000  0.00  0.00    +0.295 HD
ENDBRANCH   3   4
ENDBRANCH   2   3
ENDBRANCH   1   2
BRANCH   1   7
ATOM      7  C   UNL     1     -11.025 -12.979   0.000  0.00  0.00    +0.167 C 
BRANCH   7   8
ATOM      8  C   UNL     1     -10.512 -11.570   0.000  0.00  0.00    +0.308 C 
ATOM     11  O   UNL     1      -9.035 -11.309   0.000  0.00  0.00    -0.251 OA
BRANCH   8   9
ATOM      9  O   UNL     1     -11.476 -10.421   0.000  0.00  0.00    -0.481 OA
ATOM     10  H   UNL     1     -11.155  -9.540   0.000  0.00  0.00    +0.295 HD
ENDBRANCH   8   9
ENDBRANCH   7   8
ENDBRANCH   1   7
TORSDOF 9