REMARK  Name = 243928
REMARK  10 active torsions:
REMARK  status: ('A' for Active; 'I' for Inactive)
REMARK    1  A    between atoms: C_2  and  N_24
REMARK    2  A    between atoms: C_4  and  O_21
REMARK    3  A    between atoms: C_6  and  N_23
REMARK    4  A    between atoms: C_8  and  N_23
REMARK    5  A    between atoms: O_21  and  C_22
REMARK    6  A    between atoms: N_24  and  S_25
REMARK    7  A    between atoms: S_25  and  C_28
REMARK    8  A    between atoms: C_28  and  C_29
REMARK    9  A    between atoms: C_30  and  S_31
REMARK   10  A    between atoms: S_31  and  O_34
REMARK                            x       y       z     vdW  Elec       q    Type
REMARK                         _______ _______ _______ _____ _____    ______ ____
ROOT
ATOM      1  C   UNL     1       2.995  17.193   0.000  0.00  0.00    +0.228 C 
ATOM      2  S   UNL     1       2.245  15.894   0.000  0.00  0.00    +0.077 S 
ATOM      5  O   UNL     1       1.495  14.595   0.000  0.00  0.00    -0.148 OA
ATOM      6  O   UNL     1       3.544  15.144   0.000  0.00  0.00    -0.148 OA
ENDROOT
BRANCH   2   3
ATOM      3  O   UNL     1       0.946  16.644   0.000  0.00  0.00    -0.254 OA
ATOM      4  H   UNL     1       0.946  17.614   0.000  0.00  0.00    +0.244 HD
ENDBRANCH   2   3
TORSDOF 1