REMARK  Name = 174280
REMARK  4 active torsions:
REMARK  status: ('A' for Active; 'I' for Inactive)
REMARK    1  A    between atoms: C_2  and  C_3
REMARK    2  A    between atoms: C_2  and  C_5
REMARK    3  A    between atoms: C_3  and  C_4
REMARK    4  A    between atoms: C_5  and  O_7
REMARK                            x       y       z     vdW  Elec       q    Type
REMARK                         _______ _______ _______ _____ _____    ______ ____
ROOT
ATOM      2  C   UNL     1      -2.900  -0.924   0.000  0.00  0.00    +0.000 C 
ATOM      5  O   UNL     1      -2.150   0.375   0.000  0.00  0.00    +0.000 OA
ENDROOT
BRANCH   2   3
ATOM      3  O   UNL     1      -2.150  -2.223   0.000  0.00  0.00    +0.000 OA
ATOM      4  H   UNL     1      -2.618  -3.035   0.000  0.00  0.00    +0.000 HD
ENDBRANCH   2   3
BRANCH   2   1
ATOM      1  C   UNL     1      -4.399  -0.924   0.000  0.00  0.00    +0.000 C 
BRANCH   1   6
ATOM      6  C   UNL     1      -5.149   0.375   0.000  0.00  0.00    +0.000 C 
ATOM      7  C   UNL     1      -6.649   0.375   0.000  0.00  0.00    +0.000 C 
ENDBRANCH   1   6
ENDBRANCH   2   1
TORSDOF 3