REMARK  Name = 295156
REMARK  2 active torsions:
REMARK  status: ('A' for Active; 'I' for Inactive)
REMARK    1  A    between atoms: C_3  and  O_8
REMARK    2  A    between atoms: C_3  and  C_9
REMARK                            x       y       z     vdW  Elec       q    Type
REMARK                         _______ _______ _______ _____ _____    ______ ____
ROOT
ATOM      1  C   UNL     1       0.750  -3.000   0.000  0.00  0.00    +0.049 C 
ATOM      2  C   UNL     1       0.750  -4.500   0.000  0.00  0.00    +0.015 C 
ATOM      3  C   UNL     1       2.049  -5.250   0.000  0.00  0.00    +0.100 C 
ATOM      4  C   UNL     1       3.013  -6.399   0.000  0.00  0.00    +0.050 C 
ATOM      7  C   UNL     1       3.348  -4.500   0.000  0.00  0.00    +0.015 C 
ATOM      8  C   UNL     1       3.348  -3.000   0.000  0.00  0.00    +0.049 C 
ATOM      9  C   UNL     1       2.049  -2.250   0.000  0.00  0.00    +0.179 C 
ATOM     10  O   UNL     1       2.049  -0.750   0.000  0.00  0.00    -0.288 OA
ENDROOT
BRANCH   3   5
ATOM      5  O   UNL     1       1.085  -6.399   0.000  0.00  0.00    -0.381 OA
ATOM      6  H   UNL     1       0.130  -6.231   0.000  0.00  0.00    +0.211 HD
ENDBRANCH   3   5
TORSDOF 1