REMARK  Name = 35866
REMARK  4 active torsions:
REMARK  status: ('A' for Active; 'I' for Inactive)
REMARK    1  A    between atoms: S_2  and  C_13
REMARK    2  A    between atoms: S_2  and  C_19
REMARK    3  A    between atoms: C_12  and  C_20
REMARK    4  A    between atoms: C_19  and  C_20
REMARK                            x       y       z     vdW  Elec       q    Type
REMARK                         _______ _______ _______ _____ _____    ______ ____
ROOT
ATOM      1  N   UNL     1      -1.446   5.339   0.000  0.00  0.00    -0.206 NA
ATOM      2  C   UNL     1      -0.983   3.912   0.000  0.00  0.00    +0.216 A 
ATOM      3  N   UNL     1      -1.986   2.798   0.000  0.00  0.00    -0.327 N 
ATOM      4  H   UNL     1      -1.682   1.861   0.000  0.00  0.00    +0.145 HD
ATOM      5  H   UNL     1      -2.949   3.002   0.000  0.00  0.00    +0.145 HD
ATOM      6  N   UNL     1       0.485   3.600   0.000  0.00  0.00    -0.193 NA
ATOM      7  C   UNL     1       1.488   4.715   0.000  0.00  0.00    +0.184 A 
ATOM      8  C   UNL     1       1.025   6.142   0.000  0.00  0.00    +0.117 A 
ATOM      9  N   UNL     1       2.238   7.024   0.000  0.00  0.00    -0.341 N 
ATOM     10  C   UNL     1       3.452   6.142   0.000  0.00  0.00    +0.199 A 
ATOM     11  H   UNL     1       2.238   8.524   0.000  0.00  0.00    +0.167 HD
ATOM     12  N   UNL     1       2.988   4.715   0.000  0.00  0.00    -0.216 NA
ATOM     13  C   UNL     1      -0.442   6.454   0.000  0.00  0.00    +0.128 A 
ENDROOT
BRANCH  13  14
ATOM     14  S   UNL     1      -0.906   7.880   0.000  0.00  0.00    -0.103 S 
BRANCH  14  15
ATOM     15  C   UNL     1      -2.405   7.933   0.000  0.00  0.00    +0.080 C 
BRANCH  15  16
ATOM     16  C   UNL     1      -3.109   9.257   0.000  0.00  0.00    +0.046 C 
BRANCH  16  17
ATOM     17  C   UNL     1      -2.314  10.529   0.000  0.00  0.00    -0.047 A 
ATOM     18  C   UNL     1      -3.019  11.854   0.000  0.00  0.00    +0.003 A 
ATOM     19  C   UNL     1      -2.224  13.126   0.000  0.00  0.00    +0.000 A 
ATOM     20  C   UNL     1      -0.725  13.073   0.000  0.00  0.00    +0.000 A 
ATOM     21  C   UNL     1      -0.020  11.749   0.000  0.00  0.00    +0.000 A 
ATOM     22  C   UNL     1      -0.815  10.477   0.000  0.00  0.00    +0.003 A 
ENDBRANCH  16  17
ENDBRANCH  15  16
ENDBRANCH  14  15
ENDBRANCH  13  14
TORSDOF 4