REMARK  Name = 285223
REMARK  8 active torsions:
REMARK  status: ('A' for Active; 'I' for Inactive)
REMARK    1  A    between atoms: C_9  and  O_40
REMARK    2  A    between atoms: C_14  and  O_36
REMARK    3  A    between atoms: C_21  and  O_35
REMARK    4  A    between atoms: C_22  and  O_33
REMARK    5  A    between atoms: C_28  and  O_39
REMARK    6  A    between atoms: C_29  and  O_37
REMARK    7  A    between atoms: O_33  and  C_34
REMARK    8  A    between atoms: O_37  and  C_38
REMARK                            x       y       z     vdW  Elec       q    Type
REMARK                         _______ _______ _______ _____ _____    ______ ____
ROOT
ATOM      1  N   UNL     1      -5.581 -11.356   0.000  0.00  0.00    -0.257 NA
ATOM      2  C   UNL     1      -6.232 -12.707   0.000  0.00  0.00    +0.079 A 
ATOM      3  C   UNL     1      -5.581 -14.059   0.000  0.00  0.00    +0.066 A 
ATOM      4  C   UNL     1      -4.119 -14.393   0.000  0.00  0.00    +0.251 C 
ATOM      5  N   UNL     1      -2.946 -13.457   0.000  0.00  0.00    -0.264 N 
ATOM      6  C   UNL     1      -1.519 -13.921   0.000  0.00  0.00    +0.206 C 
ATOM      9  C   UNL     1      -0.638 -12.707   0.000  0.00  0.00    +0.054 C 
ATOM     10  C   UNL     1      -1.519 -11.494   0.000  0.00  0.00    +0.032 C 
ATOM     11  C   UNL     1      -2.946 -11.957   0.000  0.00  0.00    +0.120 C 
ATOM     12  O   UNL     1      -3.785 -15.855   0.000  0.00  0.00    -0.270 OA
ATOM     13  C   UNL     1      -6.426 -15.298   0.000  0.00  0.00    +0.064 A 
ATOM     14  C   UNL     1      -7.922 -15.186   0.000  0.00  0.00    +0.162 A 
ATOM     17  C   UNL     1      -8.573 -13.835   0.000  0.00  0.00    +0.161 A 
ATOM     20  C   UNL     1      -7.728 -12.595   0.000  0.00  0.00    +0.077 A 
ATOM     21  C   UNL     1      -4.119 -11.022   0.000  0.00  0.00    +0.106 C 
ENDROOT
BRANCH   6   7
ATOM      7  O   UNL     1      -1.056 -15.347   0.000  0.00  0.00    -0.374 OA
ATOM      8  H   UNL     1      -1.705 -16.068   0.000  0.00  0.00    +0.212 HD
ENDBRANCH   6   7
BRANCH  14  15
ATOM     15  O   UNL     1      -8.767 -16.425   0.000  0.00  0.00    -0.491 OA
ATOM     16  C   UNL     1     -10.263 -16.313   0.000  0.00  0.00    +0.277 C 
ENDBRANCH  14  15
BRANCH  17  18
ATOM     18  O   UNL     1     -10.069 -13.723   0.000  0.00  0.00    -0.503 OA
ATOM     19  H   UNL     1     -10.475 -12.878   0.000  0.00  0.00    +0.292 HD
ENDBRANCH  17  18
TORSDOF 3