REMARK  Name = 32946
REMARK  4 active torsions:
REMARK  status: ('A' for Active; 'I' for Inactive)
REMARK    1  A    between atoms: N_2  and  N_7
REMARK    2  A    between atoms: C_3  and  C_4
REMARK    3  A    between atoms: C_4  and  C_9
REMARK    4  A    between atoms: N_8  and  N_11
REMARK                            x       y       z     vdW  Elec       q    Type
REMARK                         _______ _______ _______ _____ _____    ______ ____
ROOT
ATOM      1 CL   UNL     1       6.596   6.000   0.000  0.00  0.00    -0.145 Cl
ATOM      2  H   UNL     1       7.926   6.000   0.000  0.00  0.00    +0.145 HD
ENDROOT
TORSDOF 0