REMARK  Name = 29603
REMARK  1 active torsions:
REMARK  status: ('A' for Active; 'I' for Inactive)
REMARK    1  A    between atoms: N_4  and  C_12
REMARK                            x       y       z     vdW  Elec       q    Type
REMARK                         _______ _______ _______ _____ _____    ______ ____
ROOT
ATOM      1 CL   UNL     1      10.041  -0.643   0.000  0.00  0.00    -0.145 Cl
ATOM      2  H   UNL     1      11.371  -0.643   0.000  0.00  0.00    +0.145 HD
ENDROOT
TORSDOF 0