REMARK  Name = 149765
REMARK  12 active torsions:
REMARK  status: ('A' for Active; 'I' for Inactive)
REMARK    1  A    between atoms: C_2  and  N_19
REMARK    2  A    between atoms: C_6  and  O_15
REMARK    3  A    between atoms: N_11  and  C_12
REMARK    4  A    between atoms: C_12  and  C_13
REMARK    5  A    between atoms: C_13  and  C_14
REMARK    6  A    between atoms: C_14  and  C_17
REMARK    7  A    between atoms: O_15  and  C_16
REMARK    8  A    between atoms: C_17  and  C_18
REMARK    9  A    between atoms: C_17  and  N_19
REMARK   10  A    between atoms: P_20  and  O_21
REMARK   11  A    between atoms: P_20  and  O_22
REMARK   12  A    between atoms: P_20  and  O_24
REMARK                            x       y       z     vdW  Elec       q    Type
REMARK                         _______ _______ _______ _____ _____    ______ ____
ROOT
ATOM      1  P   UNL     1      -2.799  -0.750   0.000  0.00  0.00    +0.470 P 
ATOM      4  O   UNL     1      -1.299  -0.750   0.000  0.00  0.00    -0.228 OA
ENDROOT
BRANCH   1   2
ATOM      2  O   UNL     1      -2.799   0.750   0.000  0.00  0.00    -0.303 OA
ATOM      3  H   UNL     1      -1.959   1.235   0.000  0.00  0.00    +0.222 HD
ENDBRANCH   1   2
BRANCH   1   5
ATOM      5  O   UNL     1      -2.799  -2.250   0.000  0.00  0.00    -0.303 OA
ATOM      6  H   UNL     1      -3.639  -2.735   0.000  0.00  0.00    +0.222 HD
ENDBRANCH   1   5
BRANCH   1   7
ATOM      7  O   UNL     1      -4.299  -0.750   0.000  0.00  0.00    -0.303 OA
ATOM      8  H   UNL     1      -4.784   0.090   0.000  0.00  0.00    +0.222 HD
ENDBRANCH   1   7
TORSDOF 3