REMARK  Name = 159935
REMARK  6 active torsions:
REMARK  status: ('A' for Active; 'I' for Inactive)
REMARK    1  A    between atoms: C_7  and  C_18
REMARK    2  A    between atoms: C_9  and  C_11
REMARK    3  A    between atoms: C_14  and  C_15
REMARK    4  A    between atoms: C_15  and  O_17
REMARK    5  A    between atoms: O_17  and  C_19
REMARK    6  A    between atoms: C_19  and  C_20
REMARK                            x       y       z     vdW  Elec       q    Type
REMARK                         _______ _______ _______ _____ _____    ______ ____
ROOT
ATOM      1  O   UNL     1       1.714   1.639   0.000  0.00  0.00    -0.247 OA
ATOM      2  C   UNL     1       3.213   1.696   0.000  0.00  0.00    +0.327 A 
ATOM      3  N   UNL     1       4.011   0.425   0.000  0.00  0.00    -0.311 N 
ATOM      4  C   UNL     1       5.510   0.482   0.000  0.00  0.00    +0.030 A 
ATOM      5  C   UNL     1       6.309  -0.788   0.000  0.00  0.00    +0.064 C 
ATOM      6  C   UNL     1       6.211   1.808   0.000  0.00  0.00    +0.059 A 
ATOM     14  C   UNL     1       5.413   3.078   0.000  0.00  0.00    +0.261 A 
ATOM     15  O   UNL     1       6.113   4.404   0.000  0.00  0.00    -0.267 OA
ATOM     16  H   UNL     1       3.311  -0.901   0.000  0.00  0.00    +0.170 HD
ATOM     17  N   UNL     1       3.914   3.022   0.000  0.00  0.00    -0.275 N 
ATOM     18  H   UNL     1       3.115   4.292   0.000  0.00  0.00    +0.173 HD
ENDROOT
BRANCH   6   7
ATOM      7  C   UNL     1       7.710   1.865   0.000  0.00  0.00    +0.022 C 
ATOM      8  C   UNL     1       8.508   0.595   0.000  0.00  0.00    +0.092 C 
BRANCH   8   9
ATOM      9  C   UNL     1      10.007   0.651   0.000  0.00  0.00    +0.332 C 
ATOM     13  O   UNL     1      10.708   1.977   0.000  0.00  0.00    -0.246 OA
BRANCH   9  10
ATOM     10  O   UNL     1      10.805  -0.619   0.000  0.00  0.00    -0.462 OA
BRANCH  10  11
ATOM     11  C   UNL     1      10.105  -1.945   0.000  0.00  0.00    +0.229 C 
ATOM     12  C   UNL     1       8.606  -2.002   0.000  0.00  0.00    +0.048 C 
ENDBRANCH  10  11
ENDBRANCH   9  10
ENDBRANCH   8   9
ENDBRANCH   6   7
TORSDOF 4