REMARK  Name = 36826
REMARK  3 active torsions:
REMARK  status: ('A' for Active; 'I' for Inactive)
REMARK    1  A    between atoms: S_2  and  C_14
REMARK    2  A    between atoms: S_2  and  C_20
REMARK    3  A    between atoms: C_13  and  C_20
REMARK                            x       y       z     vdW  Elec       q    Type
REMARK                         _______ _______ _______ _____ _____    ______ ____
ROOT
ATOM      1  N   UNL     1      -5.471  -5.524   0.000  0.00  0.00    -0.206 NA
ATOM      2  C   UNL     1      -5.471  -7.024   0.000  0.00  0.00    +0.216 A 
ATOM      3  N   UNL     1      -6.770  -7.774   0.000  0.00  0.00    -0.327 N 
ATOM      4  H   UNL     1      -6.770  -8.759   0.000  0.00  0.00    +0.145 HD
ATOM      5  H   UNL     1      -7.622  -7.282   0.000  0.00  0.00    +0.145 HD
ATOM      6  N   UNL     1      -4.172  -7.774   0.000  0.00  0.00    -0.193 NA
ATOM      7  C   UNL     1      -2.873  -7.024   0.000  0.00  0.00    +0.184 A 
ATOM      8  C   UNL     1      -2.873  -5.524   0.000  0.00  0.00    +0.117 A 
ATOM      9  N   UNL     1      -1.446  -5.061   0.000  0.00  0.00    -0.341 N 
ATOM     10  C   UNL     1      -0.564  -6.274   0.000  0.00  0.00    +0.199 A 
ATOM     11  H   UNL     1      -0.983  -3.634   0.000  0.00  0.00    +0.167 HD
ATOM     12  N   UNL     1      -1.446  -7.488   0.000  0.00  0.00    -0.216 NA
ATOM     13  C   UNL     1      -4.172  -4.774   0.000  0.00  0.00    +0.128 A 
ENDROOT
BRANCH  13  14
ATOM     14  S   UNL     1      -4.172  -3.275   0.000  0.00  0.00    -0.099 S 
BRANCH  14  15
ATOM     15  C   UNL     1      -5.581  -2.761   0.000  0.00  0.00    +0.112 C 
BRANCH  15  16
ATOM     16  C   UNL     1      -5.842  -1.284   0.000  0.00  0.00    -0.019 A 
ATOM     17  C   UNL     1      -7.251  -0.771   0.000  0.00  0.00    +0.006 A 
ATOM     18  C   UNL     1      -7.512   0.706   0.000  0.00  0.00    +0.000 A 
ATOM     19  C   UNL     1      -6.363   1.670   0.000  0.00  0.00    +0.001 A 
ATOM     20  C   UNL     1      -4.953   1.157   0.000  0.00  0.00    +0.020 A 
ATOM     21  C   UNL     1      -4.693  -0.320   0.000  0.00  0.00    +0.045 A 
ATOM     22 CL   UNL     1      -3.283  -0.833   0.000  0.00  0.00    -0.083 Cl
ENDBRANCH  15  16
ENDBRANCH  14  15
ENDBRANCH  13  14
TORSDOF 3