REMARK  Name = 24818
REMARK  8 active torsions:
REMARK  status: ('A' for Active; 'I' for Inactive)
REMARK    1  A    between atoms: C_7  and  O_28
REMARK    2  A    between atoms: C_16  and  C_20
REMARK    3  A    between atoms: C_23  and  O_31
REMARK    4  A    between atoms: C_24  and  O_26
REMARK    5  A    between atoms: C_25  and  O_29
REMARK    6  A    between atoms: O_26  and  C_27
REMARK    7  A    between atoms: O_29  and  C_30
REMARK    8  A    between atoms: O_31  and  C_32
REMARK                            x       y       z     vdW  Elec       q    Type
REMARK                         _______ _______ _______ _____ _____    ______ ____
ROOT
ATOM      1  O   UNL     1       4.270  -0.223   0.000  0.00  0.00    -0.453 OA
ATOM      2  C   UNL     1       2.843   0.240   0.000  0.00  0.00    +0.466 C 
ATOM      3  O   UNL     1       2.843   1.740   0.000  0.00  0.00    -0.453 OA
ATOM      4  C   UNL     1       4.270   2.204   0.000  0.00  0.00    +0.167 A 
ATOM      5  C   UNL     1       4.880   3.574   0.000  0.00  0.00    +0.056 A 
ATOM      6  C   UNL     1       6.372   3.731   0.000  0.00  0.00    -0.011 A 
ATOM      7  C   UNL     1       7.253   2.518   0.000  0.00  0.00    -0.030 A 
ATOM      8  C   UNL     1       8.745   2.674   0.000  0.00  0.00    +0.064 C 
ATOM     21  C   UNL     1       9.355   4.045   0.000  0.00  0.00    +0.118 C 
ATOM     22  C   UNL     1      10.782   4.508   0.000  0.00  0.00    +0.312 C 
ATOM     23  O   UNL     1      11.995   3.627   0.000  0.00  0.00    -0.250 OA
ATOM     24  O   UNL     1      10.782   6.008   0.000  0.00  0.00    -0.464 OA
ATOM     25  C   UNL     1       9.355   6.472   0.000  0.00  0.00    +0.239 C 
ATOM     26  C   UNL     1       8.473   5.258   0.000  0.00  0.00    +0.074 C 
ATOM     27  C   UNL     1       6.643   1.147   0.000  0.00  0.00    +0.054 A 
ATOM     28  C   UNL     1       6.982   5.101   0.000  0.00  0.00    +0.152 C 
ATOM     31  C   UNL     1       5.151   0.990   0.000  0.00  0.00    +0.167 A 
ENDROOT
BRANCH   8   9
ATOM      9  C   UNL     1       9.627   1.461   0.000  0.00  0.00    -0.032 A 
ATOM     10  C   UNL     1       9.017   0.090   0.000  0.00  0.00    +0.054 A 
ATOM     11  C   UNL     1       9.898  -1.123   0.000  0.00  0.00    +0.165 A 
ATOM     14  C   UNL     1      11.390  -0.966   0.000  0.00  0.00    +0.204 A 
ATOM     17  C   UNL     1      12.000   0.404   0.000  0.00  0.00    +0.165 A 
ATOM     20  C   UNL     1      11.118   1.618   0.000  0.00  0.00    +0.054 A 
BRANCH  11  12
ATOM     12  O   UNL     1       9.288  -2.493   0.000  0.00  0.00    -0.491 OA
ATOM     13  C   UNL     1       7.796  -2.650   0.000  0.00  0.00    +0.277 C 
ENDBRANCH  11  12
BRANCH  14  15
ATOM     15  O   UNL     1      12.272  -2.180   0.000  0.00  0.00    -0.488 OA
ATOM     16  C   UNL     1      11.662  -3.550   0.000  0.00  0.00    +0.277 C 
ENDBRANCH  14  15
BRANCH  17  18
ATOM     18  O   UNL     1      13.492   0.561   0.000  0.00  0.00    -0.491 OA
ATOM     19  C   UNL     1      14.102   1.931   0.000  0.00  0.00    +0.277 C 
ENDBRANCH  17  18
ENDBRANCH   8   9
BRANCH  28  29
ATOM     29  O   UNL     1       6.100   6.315   0.000  0.00  0.00    -0.387 OA
ATOM     30  H   UNL     1       6.494   7.201   0.000  0.00  0.00    +0.210 HD
ENDBRANCH  28  29
TORSDOF 5