REMARK  Name = 1011
REMARK  7 active torsions:
REMARK  status: ('A' for Active; 'I' for Inactive)
REMARK    1  A    between atoms: C_7  and  O_28
REMARK    2  A    between atoms: C_17  and  N_24
REMARK    3  A    between atoms: C_19  and  C_25
REMARK    4  A    between atoms: C_21  and  C_22
REMARK    5  A    between atoms: C_21  and  C_23
REMARK    6  A    between atoms: C_21  and  N_24
REMARK    7  A    between atoms: C_25  and  O_26
REMARK                            x       y       z     vdW  Elec       q    Type
REMARK                         _______ _______ _______ _____ _____    ______ ____
ROOT
ATOM      9  C   UNL     1      -8.819  -0.275   0.000  0.00  0.00    +0.135 C 
ENDROOT
BRANCH   9   8
ATOM      1  N   UNL     1      -3.623  -0.275   0.000  0.00  0.00    -0.251 NA
ATOM      2  C   UNL     1      -4.922  -1.025   0.000  0.00  0.00    +0.113 A 
ATOM      3  C   UNL     1      -4.922  -2.525   0.000  0.00  0.00    +0.004 A 
ATOM      4  C   UNL     1      -3.623  -3.275   0.000  0.00  0.00    +0.011 A 
ATOM      5  C   UNL     1      -2.324  -2.525   0.000  0.00  0.00    +0.020 A 
ATOM      6  C   UNL     1      -6.221  -3.275   0.000  0.00  0.00    +0.010 A 
ATOM      7  C   UNL     1      -7.520  -2.525   0.000  0.00  0.00    +0.010 A 
ATOM      8  C   UNL     1      -7.520  -1.025   0.000  0.00  0.00    +0.021 A 
ATOM     28  C   UNL     1      -6.221  -0.275   0.000  0.00  0.00    +0.148 A 
ATOM     31  C   UNL     1      -2.324  -1.025   0.000  0.00  0.00    +0.111 A 
BRANCH  28  29
ATOM     29  O   UNL     1      -6.221   1.226   0.000  0.00  0.00    -0.504 OA
ATOM     30  H   UNL     1      -5.409   1.694   0.000  0.00  0.00    +0.292 HD
ENDBRANCH  28  29
ENDBRANCH   9   8
BRANCH   9  22
ATOM     22  C   UNL     1      -8.819   1.226   0.000  0.00  0.00    -0.023 A 
ATOM     23  C   UNL     1     -10.118   1.976   0.000  0.00  0.00    +0.006 A 
ATOM     24  C   UNL     1     -10.118   3.475   0.000  0.00  0.00    +0.000 A 
ATOM     25  C   UNL     1      -8.819   4.226   0.000  0.00  0.00    +0.000 A 
ATOM     26  C   UNL     1      -7.520   3.475   0.000  0.00  0.00    +0.000 A 
ATOM     27  C   UNL     1      -7.520   1.976   0.000  0.00  0.00    +0.006 A 
ENDBRANCH   9  22
BRANCH   9  10
ATOM     10  N   UNL     1     -10.118  -1.025   0.000  0.00  0.00    -0.333 N 
ATOM     11  H   UNL     1     -10.118  -2.009   0.000  0.00  0.00    +0.147 HD
BRANCH  10  12
ATOM     12  C   UNL     1     -11.417  -0.275   0.000  0.00  0.00    +0.028 A 
ATOM     13  C   UNL     1     -12.716  -1.025   0.000  0.00  0.00    +0.024 A 
ATOM     14  C   UNL     1     -14.015  -0.275   0.000  0.00  0.00    +0.017 A 
ATOM     15  C   UNL     1     -14.015   1.226   0.000  0.00  0.00    +0.059 A 
ATOM     20  C   UNL     1     -12.716   1.976   0.000  0.00  0.00    +0.017 A 
ATOM     21  C   UNL     1     -11.417   1.226   0.000  0.00  0.00    +0.024 A 
BRANCH  15  16
ATOM     16  C   UNL     1     -15.314   1.976   0.000  0.00  0.00    +0.337 C 
ATOM     17  O   UNL     1     -15.314   3.475   0.000  0.00  0.00    -0.245 OA
BRANCH  16  18
ATOM     18  O   UNL     1     -16.613   1.226   0.000  0.00  0.00    -0.477 OA
ATOM     19  H   UNL     1     -17.424   1.694   0.000  0.00  0.00    +0.295 HD
ENDBRANCH  16  18
ENDBRANCH  15  16
ENDBRANCH  10  12
ENDBRANCH   9  10
TORSDOF 7