REMARK  Name = 185065
REMARK  6 active torsions:
REMARK  status: ('A' for Active; 'I' for Inactive)
REMARK    1  A    between atoms: N_2  and  N_16
REMARK    2  A    between atoms: C_5  and  N_19
REMARK    3  A    between atoms: C_10  and  O_14
REMARK    4  A    between atoms: C_13  and  C_15
REMARK    5  A    between atoms: N_16  and  C_17
REMARK    6  A    between atoms: C_17  and  N_19
REMARK                            x       y       z     vdW  Elec       q    Type
REMARK                         _______ _______ _______ _____ _____    ______ ____
ROOT
ATOM     11  N   UNL     1      -0.448   3.131   0.000  0.00  0.00    -0.218 N 
ATOM     12  H   UNL     1       0.531   3.233   0.000  0.00  0.00    +0.176 HD
ENDROOT
BRANCH  11  10
ATOM      9  C   UNL     1      -2.676   1.795   0.000  0.00  0.00    +0.158 C 
ATOM     10  N   UNL     1      -1.177   1.820   0.000  0.00  0.00    -0.187 NA
BRANCH   9   8
ATOM      1  N   UNL     1      -2.634  -0.802   0.000  0.00  0.00    -0.250 NA
ATOM      2  C   UNL     1      -3.362  -2.114   0.000  0.00  0.00    +0.156 A 
ATOM      3  C   UNL     1      -4.862  -2.138   0.000  0.00  0.00    +0.135 A 
ATOM      6  C   UNL     1      -5.633  -0.852   0.000  0.00  0.00    +0.049 A 
ATOM      7  C   UNL     1      -4.905   0.460   0.000  0.00  0.00    +0.033 A 
ATOM      8  C   UNL     1      -3.405   0.484   0.000  0.00  0.00    +0.084 A 
BRANCH   3   4
ATOM      4  O   UNL     1      -5.591  -3.449   0.000  0.00  0.00    -0.505 OA
ATOM      5  H   UNL     1      -6.528  -3.465   0.000  0.00  0.00    +0.292 HD
ENDBRANCH   3   4
ENDBRANCH   9   8
ENDBRANCH  11  10
BRANCH  11  13
ATOM     13  C   UNL     1      -1.431   4.264   0.000  0.00  0.00    +0.154 C 
ATOM     22  S   UNL     1      -2.904   3.979   0.000  0.00  0.00    -0.017 S 
BRANCH  13  14
ATOM     14  N   UNL     1      -0.941   5.682   0.000  0.00  0.00    -0.294 N 
ATOM     15  H   UNL     1       0.026   5.869   0.000  0.00  0.00    +0.154 HD
BRANCH  14  16
ATOM     16  C   UNL     1      -1.924   6.815   0.000  0.00  0.00    +0.051 A 
ATOM     17  C   UNL     1      -1.434   8.233   0.000  0.00  0.00    +0.026 A 
ATOM     18  C   UNL     1      -2.417   9.366   0.000  0.00  0.00    +0.021 A 
ATOM     19  C   UNL     1      -3.890   9.081   0.000  0.00  0.00    +0.111 A 
ATOM     20  N   UNL     1      -4.380   7.663   0.000  0.00  0.00    -0.261 NA
ATOM     21  C   UNL     1      -3.397   6.530   0.000  0.00  0.00    +0.134 A 
ENDBRANCH  14  16
ENDBRANCH  13  14
ENDBRANCH  11  13
TORSDOF 6