REMARK  Name = 166381
REMARK  7 active torsions:
REMARK  status: ('A' for Active; 'I' for Inactive)
REMARK    1  A    between atoms: N_3  and  C_25
REMARK    2  A    between atoms: N_4  and  C_22
REMARK    3  A    between atoms: C_9  and  N_24
REMARK    4  A    between atoms: C_20  and  C_26
REMARK    5  A    between atoms: C_22  and  C_23
REMARK    6  A    between atoms: C_23  and  N_24
REMARK    7  A    between atoms: C_26  and  O_27
REMARK                            x       y       z     vdW  Elec       q    Type
REMARK                         _______ _______ _______ _____ _____    ______ ____
ROOT
ATOM      1  O   UNL     1       4.647   7.500   0.000  0.00  0.00    -0.287 OA
ATOM      2  C   UNL     1       4.647   6.000   0.000  0.00  0.00    +0.197 A 
ATOM      3  C   UNL     1       3.348   5.250   0.000  0.00  0.00    +0.036 A 
ATOM      4  C   UNL     1       2.049   6.000   0.000  0.00  0.00    +0.013 A 
ATOM      5  C   UNL     1       0.750   5.250   0.000  0.00  0.00    +0.001 A 
ATOM      6  C   UNL     1       0.750   3.750   0.000  0.00  0.00    +0.001 A 
ATOM      7  C   UNL     1       2.049   3.000   0.000  0.00  0.00    +0.016 A 
ATOM      8  C   UNL     1       3.348   3.750   0.000  0.00  0.00    +0.024 A 
ATOM      9  S   UNL     1       4.647   3.000   0.000  0.00  0.00    -0.088 S 
ATOM     10  C   UNL     1       5.946   3.750   0.000  0.00  0.00    +0.031 A 
ATOM     11  C   UNL     1       7.245   3.000   0.000  0.00  0.00    -0.008 A 
ATOM     15  C   UNL     1       8.544   3.750   0.000  0.00  0.00    +0.009 A 
ATOM     16  C   UNL     1       8.544   5.250   0.000  0.00  0.00    +0.024 A 
ATOM     17  C   UNL     1       7.245   6.000   0.000  0.00  0.00    +0.039 A 
ATOM     29  C   UNL     1       5.946   5.250   0.000  0.00  0.00    +0.057 A 
ENDROOT
BRANCH  17  18
ATOM     18  N   UNL     1       7.245   7.500   0.000  0.00  0.00    -0.342 N 
ATOM     19  H   UNL     1       6.393   7.992   0.000  0.00  0.00    +0.146 HD
BRANCH  18  20
ATOM     20  C   UNL     1       8.544   8.250   0.000  0.00  0.00    +0.117 C 
BRANCH  20  21
ATOM     21  C   UNL     1       9.693   7.286   0.000  0.00  0.00    +0.103 C 
BRANCH  21  22
ATOM     22  N   UNL     1      11.103   7.799   0.000  0.00  0.00    -0.298 NA
ATOM     23  C   UNL     1      12.252   6.835   0.000  0.00  0.00    +0.100 C 
ATOM     24  C   UNL     1      13.661   7.348   0.000  0.00  0.00    +0.099 C 
ATOM     25  N   UNL     1      13.922   8.825   0.000  0.00  0.00    -0.303 NA
ATOM     26  C   UNL     1      15.331   9.338   0.000  0.00  0.00    +0.105 C 
ATOM     27  C   UNL     1      12.773   9.789   0.000  0.00  0.00    +0.099 C 
ATOM     28  C   UNL     1      11.363   9.276   0.000  0.00  0.00    +0.100 C 
ENDBRANCH  21  22
ENDBRANCH  20  21
ENDBRANCH  18  20
ENDBRANCH  17  18
BRANCH  11  12
ATOM     12  C   UNL     1       7.245   1.500   0.000  0.00  0.00    +0.192 C 
BRANCH  12  13
ATOM     13  O   UNL     1       8.544   0.750   0.000  0.00  0.00    -0.390 OA
ATOM     14  H   UNL     1       8.544  -0.220   0.000  0.00  0.00    +0.210 HD
ENDBRANCH  12  13
ENDBRANCH  11  12
TORSDOF 6