REMARK  Name = 169600
REMARK  7 active torsions:
REMARK  status: ('A' for Active; 'I' for Inactive)
REMARK    1  A    between atoms: C_3  and  O_23
REMARK    2  A    between atoms: C_9  and  C_18
REMARK    3  A    between atoms: C_16  and  C_17
REMARK    4  A    between atoms: C_16  and  C_19
REMARK    5  A    between atoms: C_19  and  O_21
REMARK    6  A    between atoms: O_21  and  C_22
REMARK    7  A    between atoms: O_23  and  C_24
REMARK                            x       y       z     vdW  Elec       q    Type
REMARK                         _______ _______ _______ _____ _____    ______ ____
ROOT
ATOM      1 BR   UNL     1       0.924 -10.400   0.000  0.00  0.00    -0.079 Br
ATOM      2  C   UNL     1       0.924  -8.899   0.000  0.00  0.00    +0.132 C 
ATOM      3  C   UNL     1      -0.375  -8.149   0.000  0.00  0.00    +0.037 C 
ATOM      4  C   UNL     1      -1.674  -8.899   0.000  0.00  0.00    +0.070 C 
ATOM      9  C   UNL     1      -2.638 -10.049   0.000  0.00  0.00    +0.023 C 
ATOM     10  C   UNL     1      -2.973  -8.149   0.000  0.00  0.00    +0.018 C 
ATOM     11  C   UNL     1      -2.973  -6.649   0.000  0.00  0.00    +0.002 C 
ATOM     12  C   UNL     1      -1.674  -5.899   0.000  0.00  0.00    +0.012 C 
ATOM     13  C   UNL     1      -0.375  -6.649   0.000  0.00  0.00    -0.001 C 
ATOM     14  C   UNL     1      -0.375  -5.149   0.000  0.00  0.00    +0.016 C 
ATOM     15  C   UNL     1       0.924  -5.899   0.000  0.00  0.00    -0.027 A 
ATOM     16  C   UNL     1       2.223  -6.649   0.000  0.00  0.00    +0.022 A 
ATOM     17  C   UNL     1       3.522  -5.899   0.000  0.00  0.00    +0.015 A 
ATOM     18  C   UNL     1       3.522  -4.399   0.000  0.00  0.00    +0.046 A 
ATOM     19  C   UNL     1       2.223  -3.650   0.000  0.00  0.00    +0.120 A 
ATOM     22  C   UNL     1       0.924  -4.399   0.000  0.00  0.00    +0.050 A 
ATOM     23  C   UNL     1       2.223  -8.149   0.000  0.00  0.00    +0.177 C 
ATOM     24  O   UNL     1       3.522  -8.899   0.000  0.00  0.00    -0.291 OA
ENDROOT
BRANCH   4   5
ATOM      5  C   UNL     1      -1.414 -10.377   0.000  0.00  0.00    +0.313 C 
ATOM      8  O   UNL     1      -0.004 -10.890   0.000  0.00  0.00    -0.250 OA
BRANCH   5   6
ATOM      6  O   UNL     1      -2.563 -11.341   0.000  0.00  0.00    -0.468 OA
ATOM      7  C   UNL     1      -3.972 -10.828   0.000  0.00  0.00    +0.280 C 
ENDBRANCH   5   6
ENDBRANCH   4   5
BRANCH  19  20
ATOM     20  O   UNL     1       2.223  -2.150   0.000  0.00  0.00    -0.495 OA
ATOM     21  C   UNL     1       0.924  -1.400   0.000  0.00  0.00    +0.277 C 
ENDBRANCH  19  20
TORSDOF 3