REMARK  Name = 361813
REMARK  6 active torsions:
REMARK  status: ('A' for Active; 'I' for Inactive)
REMARK    1  A    between atoms: N_1  and  C_33
REMARK    2  A    between atoms: N_6  and  C_34
REMARK    3  A    between atoms: N_7  and  C_34
REMARK    4  A    between atoms: N_25  and  C_35
REMARK    5  A    between atoms: N_27  and  C_35
REMARK    6  A    between atoms: N_32  and  C_36
REMARK                            x       y       z     vdW  Elec       q    Type
REMARK                         _______ _______ _______ _____ _____    ______ ____
ROOT
ATOM      7  N   UNL     1      -0.503   6.229   0.000  0.00  0.00    -0.228 N 
ATOM      8  C   UNL     1       0.983   6.432   0.000  0.00  0.00    +0.227 C 
ATOM      9  C   UNL     1       1.250   7.908   0.000  0.00  0.00    +0.095 C 
ATOM     10  C   UNL     1       1.204   9.407   0.000  0.00  0.00    +0.028 C 
ATOM     11  C   UNL     1       2.479  10.197   0.000  0.00  0.00    +0.014 C 
ATOM     12  C   UNL     1       3.188  11.519   0.000  0.00  0.00    +0.092 C 
ATOM     13  C   UNL     1       4.272  12.556   0.000  0.00  0.00    +0.227 C 
ATOM     14  O   UNL     1       5.748  12.290   0.000  0.00  0.00    -0.275 OA
ATOM     15  N   UNL     1       3.620  13.907   0.000  0.00  0.00    -0.228 N 
ATOM     24  C   UNL     1       2.133  13.704   0.000  0.00  0.00    +0.227 C 
ATOM     25  O   UNL     1       1.096  14.788   0.000  0.00  0.00    -0.275 OA
ATOM     26  C   UNL     1       1.867  12.228   0.000  0.00  0.00    +0.092 C 
ATOM     27  C   UNL     1       1.157  10.907   0.000  0.00  0.00    +0.014 C 
ATOM     28  C   UNL     1      -0.118  10.117   0.000  0.00  0.00    +0.028 C 
ATOM     29  C   UNL     1      -1.440  10.826   0.000  0.00  0.00    -0.026 C 
ATOM     30  C   UNL     1      -0.003  11.259   0.000  0.00  0.00    -0.026 C 
ATOM     31  C   UNL     1      -0.072   8.618   0.000  0.00  0.00    +0.095 C 
ATOM     32  O   UNL     1       2.021   5.349   0.000  0.00  0.00    -0.275 OA
ATOM     33  C   UNL     1      -1.155   7.580   0.000  0.00  0.00    +0.227 C 
ATOM     34  O   UNL     1      -2.631   7.846   0.000  0.00  0.00    -0.275 OA
ENDROOT
BRANCH   7   6
ATOM      6  C   UNL     1      -1.213   4.908   0.000  0.00  0.00    +0.203 C 
BRANCH   6   5
ATOM      1  N   UNL     1      -5.711   4.769   0.000  0.00  0.00    -0.303 NA
ATOM      2  C   UNL     1      -7.210   4.723   0.000  0.00  0.00    +0.105 C 
ATOM      3  C   UNL     1      -4.921   3.494   0.000  0.00  0.00    +0.099 C 
ATOM      4  C   UNL     1      -3.422   3.540   0.000  0.00  0.00    +0.101 C 
ATOM      5  N   UNL     1      -2.712   4.861   0.000  0.00  0.00    -0.284 NA
ATOM     35  C   UNL     1      -3.502   6.137   0.000  0.00  0.00    +0.101 C 
ATOM     36  C   UNL     1      -5.001   6.090   0.000  0.00  0.00    +0.099 C 
ENDBRANCH   6   5
ENDBRANCH   7   6
BRANCH  15  16
ATOM     16  C   UNL     1       4.329  15.228   0.000  0.00  0.00    +0.203 C 
BRANCH  16  17
ATOM     17  N   UNL     1       3.539  16.504   0.000  0.00  0.00    -0.284 NA
ATOM     18  C   UNL     1       4.249  17.825   0.000  0.00  0.00    +0.101 C 
ATOM     19  C   UNL     1       3.459  19.101   0.000  0.00  0.00    +0.099 C 
ATOM     20  N   UNL     1       1.960  19.054   0.000  0.00  0.00    -0.303 NA
ATOM     21  C   UNL     1       1.171  20.330   0.000  0.00  0.00    +0.105 C 
ATOM     22  C   UNL     1       1.251  17.733   0.000  0.00  0.00    +0.099 C 
ATOM     23  C   UNL     1       2.040  16.458   0.000  0.00  0.00    +0.101 C 
ENDBRANCH  16  17
ENDBRANCH  15  16
TORSDOF 4