REMARK  Name = 126727
REMARK  7 active torsions:
REMARK  status: ('A' for Active; 'I' for Inactive)
REMARK    1  A    between atoms: C_1  and  O_27
REMARK    2  A    between atoms: C_2  and  O_28
REMARK    3  A    between atoms: C_3  and  O_29
REMARK    4  A    between atoms: C_11  and  C_20
REMARK    5  A    between atoms: C_12  and  O_27
REMARK    6  A    between atoms: C_15  and  O_28
REMARK    7  A    between atoms: C_18  and  O_29
REMARK                            x       y       z     vdW  Elec       q    Type
REMARK                         _______ _______ _______ _____ _____    ______ ____
ROOT
ATOM      9  C   UNL     1      -7.245  -4.624   0.000  0.00  0.00    +0.062 C 
ATOM     10  C   UNL     1      -7.245  -3.124   0.000  0.00  0.00    +0.098 C 
ATOM     11  C   UNL     1      -6.130  -2.120   0.000  0.00  0.00    +0.165 C 
ATOM     12  O   UNL     1      -4.663  -2.432   0.000  0.00  0.00    -0.295 OA
ATOM     13  C   UNL     1      -6.741  -0.750   0.000  0.00  0.00    +0.234 C 
ATOM     14  O   UNL     1      -8.232  -0.907   0.000  0.00  0.00    -0.368 OA
ATOM     15  C   UNL     1      -8.544  -2.374   0.000  0.00  0.00    +0.134 C 
ATOM     16  C   UNL     1      -9.843  -3.124   0.000  0.00  0.00    +0.071 C 
ATOM     17  C   UNL     1      -9.843  -4.624   0.000  0.00  0.00    +0.004 A 
ATOM     18  C   UNL     1     -11.142  -5.374   0.000  0.00  0.00    +0.169 A 
ATOM     21  C   UNL     1     -11.142  -6.874   0.000  0.00  0.00    +0.208 A 
ATOM     22  O   UNL     1     -12.257  -7.878   0.000  0.00  0.00    -0.449 OA
ATOM     23  C   UNL     1     -11.647  -9.248   0.000  0.00  0.00    +0.467 C 
ATOM     24  O   UNL     1     -10.155  -9.091   0.000  0.00  0.00    -0.452 OA
ATOM     25  C   UNL     1      -9.843  -7.624   0.000  0.00  0.00    +0.170 A 
ATOM     26  C   UNL     1      -8.544  -6.874   0.000  0.00  0.00    +0.054 A 
ATOM     27  C   UNL     1      -8.544  -5.374   0.000  0.00  0.00    -0.029 A 
ENDROOT
BRANCH   9   8
ATOM      3  C   UNL     1      -3.348  -6.874   0.000  0.00  0.00    +0.162 A 
ATOM      4  C   UNL     1      -4.647  -7.624   0.000  0.00  0.00    +0.162 A 
ATOM      7  C   UNL     1      -5.946  -6.874   0.000  0.00  0.00    +0.053 A 
ATOM      8  C   UNL     1      -5.946  -5.374   0.000  0.00  0.00    -0.036 A 
ATOM     28  C   UNL     1      -4.647  -4.624   0.000  0.00  0.00    +0.008 A 
ATOM     29  C   UNL     1      -3.348  -5.374   0.000  0.00  0.00    +0.050 A 
BRANCH   3   2
ATOM      1  C   UNL     1      -0.750  -6.874   0.000  0.00  0.00    +0.277 C 
ATOM      2  O   UNL     1      -2.049  -7.624   0.000  0.00  0.00    -0.491 OA
ENDBRANCH   3   2
BRANCH   4   5
ATOM      5  O   UNL     1      -4.647  -9.124   0.000  0.00  0.00    -0.491 OA
ATOM      6  C   UNL     1      -3.348  -9.874   0.000  0.00  0.00    +0.277 C 
ENDBRANCH   4   5
ENDBRANCH   9   8
BRANCH  18  19
ATOM     19  O   UNL     1     -12.441  -4.624   0.000  0.00  0.00    -0.491 OA
ATOM     20  C   UNL     1     -13.740  -5.374   0.000  0.00  0.00    +0.277 C 
ENDBRANCH  18  19
TORSDOF 4