REMARK  Name = 34931
REMARK  16 active torsions:
REMARK  status: ('A' for Active; 'I' for Inactive)
REMARK    1  A    between atoms: C_2  and  N_16
REMARK    2  A    between atoms: C_4  and  S_43
REMARK    3  A    between atoms: C_5  and  C_7
REMARK    4  A    between atoms: C_8  and  C_9
REMARK    5  A    between atoms: C_12  and  N_15
REMARK    6  A    between atoms: C_14  and  S_51
REMARK    7  A    between atoms: N_17  and  C_29
REMARK    8  A    between atoms: N_18  and  C_19
REMARK    9  A    between atoms: C_20  and  O_55
REMARK   10  A    between atoms: C_23  and  S_39
REMARK   11  A    between atoms: C_30  and  O_56
REMARK   12  A    between atoms: C_33  and  S_47
REMARK   13  A    between atoms: S_39  and  O_42
REMARK   14  A    between atoms: S_43  and  O_46
REMARK   15  A    between atoms: S_47  and  O_50
REMARK   16  A    between atoms: S_51  and  O_54
REMARK                            x       y       z     vdW  Elec       q    Type
REMARK                         _______ _______ _______ _____ _____    ______ ____
ROOT
ATOM      1 NA   UNL     1       6.994  17.136   0.000  0.00  0.00    +0.000 Na
ENDROOT
TORSDOF 0