REMARK  Name = 174121
REMARK  12 active torsions:
REMARK  status: ('A' for Active; 'I' for Inactive)
REMARK    1  A    between atoms: C_1  and  N_32
REMARK    2  A    between atoms: CB_9  and  CG_10
REMARK    3  A    between atoms: CB_9  and  CA_21
REMARK    4  A    between atoms: CG_10  and  CD_22
REMARK    5  A    between atoms: C_11  and  C_16
REMARK    6  A    between atoms: C_11  and  N_32
REMARK    7  A    between atoms: C_14  and  C_23
REMARK    8  A    between atoms: C_15  and  N_32
REMARK    9  A    between atoms: CA_21  and  C_24
REMARK   10  A    between atoms: CA_21  and  N_31
REMARK   11  A    between atoms: CD_22  and  OE1_33
REMARK   12  A    between atoms: C_24  and  O_34
REMARK                            x       y       z     vdW  Elec       q    Type
REMARK                         _______ _______ _______ _____ _____    ______ ____
ROOT
ATOM      3  C   UNK A   0      14.017   0.112   0.000  0.00  0.00    +0.038 A 
ATOM      4  C   UNK A   0      15.325   0.847   0.000  0.00  0.00    +0.004 A 
ATOM      5  C   UNK A   0      16.615   0.082   0.000  0.00  0.00    -0.004 A 
ATOM      6  C   UNK A   0      16.598  -1.418   0.000  0.00  0.00    +0.045 A 
ATOM     22  C   UNK A   0      15.290  -2.153   0.000  0.00  0.00    +0.015 A 
ATOM     23  C   UNK A   0      17.923   0.817   0.000  0.00  0.00    +0.009 A 
ATOM     24  C   UNK A   0      17.940   2.316   0.000  0.00  0.00    +0.001 A 
ATOM     25  C   UNK A   0      16.650   3.081   0.000  0.00  0.00    +0.001 A 
ATOM     26  C   UNK A   0      15.342   2.346   0.000  0.00  0.00    +0.010 A 
ATOM     27  C   UNK A   0      14.000  -1.388   0.000  0.00  0.00    +0.024 A 
ENDROOT
BRANCH   6   7
ATOM      7  C   UNK A   0      17.888  -2.183   0.000  0.00  0.00    +0.245 C 
ATOM      8  O   UNK A   0      19.195  -1.448   0.000  0.00  0.00    -0.270 OA
ATOM      9  N   GLU A   1      17.871  -3.683   0.000  0.00  0.00    -0.298 N 
ATOM     10  H   GLU A   1      16.563  -4.418   0.000  0.00  0.00    +0.150 HD
BRANCH   9  11
ATOM     11  CA  GLU A   1      19.161  -4.448   0.000  0.00  0.00    +0.182 C 
BRANCH  11  12
ATOM     12  C   GLU A   1      19.143  -5.948   0.000  0.00  0.00    +0.325 C 
ATOM     13  OXT GLU A   1      17.836  -6.683   0.000  0.00  0.00    -0.249 OA
BRANCH  12  14
ATOM     14  O   GLU A   1      20.433  -6.713   0.000  0.00  0.00    -0.479 OA
ATOM     15  H   GLU A   1      20.416  -8.213   0.000  0.00  0.00    +0.295 HD
ENDBRANCH  12  14
ENDBRANCH  11  12
BRANCH  11  16
ATOM     16  CB  GLU A   1      20.468  -3.713   0.000  0.00  0.00    +0.045 C 
BRANCH  16  17
ATOM     17  CG  GLU A   1      21.759  -4.478   0.000  0.00  0.00    +0.123 C 
BRANCH  17  18
ATOM     18  CD  GLU A   1      23.066  -3.744   0.000  0.00  0.00    +0.305 C 
ATOM     19  OE2 GLU A   1      23.084  -2.244   0.000  0.00  0.00    -0.251 OA
BRANCH  18  20
ATOM     20  OE1 GLU A   1      24.357  -4.509   0.000  0.00  0.00    -0.481 OA
ATOM     21  HE1 GLU A   1      25.664  -3.774   0.000  0.00  0.00    +0.295 HD
ENDBRANCH  18  20
ENDBRANCH  17  18
ENDBRANCH  16  17
ENDBRANCH  11  16
ENDBRANCH   9  11
ENDBRANCH   6   7
BRANCH   3   2
ATOM      1  C   UNK A   0      12.744   2.377   0.000  0.00  0.00    +0.129 C 
ATOM      2  N   UNK A   0      12.727   0.877   0.000  0.00  0.00    -0.327 N 
BRANCH   2  28
ATOM     28  C   UNK A   0      11.419   0.142   0.000  0.00  0.00    +0.161 C 
BRANCH  28  29
ATOM     29  C   UNK A   0      10.129   0.907   0.000  0.00  0.00    +0.077 A 
ATOM     30  N   UNK A   0       8.821   0.172   0.000  0.00  0.00    -0.242 NA
ATOM     31  C   UNK A   0       7.531   0.937   0.000  0.00  0.00    +0.148 A 
ATOM     32  C   UNK A   0       7.548   2.437   0.000  0.00  0.00    +0.185 A 
ATOM     33  N   UNK A   0       6.258   3.202   0.000  0.00  0.00    -0.193 NA
ATOM     34  C   UNK A   0       4.951   2.467   0.000  0.00  0.00    +0.216 A 
ATOM     35  N   UNK A   0       4.933   0.967   0.000  0.00  0.00    -0.198 NA
ATOM     36  N   UNK A   0       3.660   3.232   0.000  0.00  0.00    -0.327 N 
ATOM     37  H   UNK A   0       2.353   2.497   0.000  0.00  0.00    +0.145 HD
ATOM     38  H   UNK A   0       3.678   4.732   0.000  0.00  0.00    +0.145 HD
ATOM     39  N   UNK A   0       8.856   3.172   0.000  0.00  0.00    -0.232 NA
ATOM     40  C   UNK A   0       6.223   0.202   0.000  0.00  0.00    +0.149 A 
ATOM     41  N   UNK A   0       6.206  -1.298   0.000  0.00  0.00    -0.341 N 
ATOM     42  H   UNK A   0       7.496  -2.063   0.000  0.00  0.00    +0.144 HD
ATOM     43  H   UNK A   0       4.898  -2.033   0.000  0.00  0.00    +0.144 HD
ATOM     44  C   UNK A   0      10.146   2.407   0.000  0.00  0.00    +0.138 A 
ENDBRANCH  28  29
ENDBRANCH   2  28
ENDBRANCH   3   2
TORSDOF 11