REMARK  Name = 284356
REMARK  0 active torsions:
REMARK  status: ('A' for Active; 'I' for Inactive)
REMARK                            x       y       z     vdW  Elec       q    Type
REMARK                         _______ _______ _______ _____ _____    ______ ____
ROOT
ATOM      1  O   UNL     1      -4.117  -1.536   0.000  0.00  0.00    -0.275 OA
ATOM      2  C   UNL     1      -3.326  -0.746   0.000  0.00  0.00    +0.224 C 
ATOM      3  N   UNL     1      -3.326   0.332   0.000  0.00  0.00    -0.256 N 
ATOM      4  H   UNL     1      -4.184   0.816   0.000  0.00  0.00    +0.157 HD
ATOM      5  C   UNL     1      -2.377   0.906   0.000  0.00  0.00    +0.224 C 
ATOM      6  C   UNL     1      -1.427   0.356   0.000  0.00  0.00    +0.095 C 
ATOM      7  C   UNL     1      -0.472   0.907   0.000  0.00  0.00    +0.028 C 
ATOM      8  C   UNL     1       0.481   0.356   0.000  0.00  0.00    +0.014 C 
ATOM      9  C   UNL     1       1.583   0.356   0.000  0.00  0.00    +0.091 C 
ATOM     10  C   UNL     1       1.583  -0.746   0.000  0.00  0.00    +0.091 C 
ATOM     11  C   UNL     1       3.453  -0.746   0.000  0.00  0.00    +0.223 C 
ATOM     12  N   UNL     1       3.453   0.386   0.000  0.00  0.00    -0.256 N 
ATOM     13  H   UNL     1       4.304   0.882   0.000  0.00  0.00    +0.157 HD
ATOM     14  O   UNL     1       4.220  -1.513   0.000  0.00  0.00    -0.275 OA
ATOM     15  C   UNL     1       2.533   0.906   0.000  0.00  0.00    +0.223 C 
ATOM     16  O   UNL     1       2.533   1.936   0.000  0.00  0.00    -0.275 OA
ATOM     17  C   UNL     1       0.481  -0.746   0.000  0.00  0.00    +0.014 C 
ATOM     18  C   UNL     1      -0.472  -1.297   0.000  0.00  0.00    +0.028 C 
ATOM     19  C   UNL     1      -0.896  -0.384   0.000  0.00  0.00    -0.026 C 
ATOM     20  C   UNL     1      -0.107   0.086   0.000  0.00  0.00    -0.026 C 
ATOM     21  O   UNL     1      -2.377   1.936   0.000  0.00  0.00    -0.275 OA
ATOM     22  C   UNL     1      -1.427  -0.746   0.000  0.00  0.00    +0.095 C 
ENDROOT
TORSDOF 0