REMARK  Name = 34391
REMARK  6 active torsions:
REMARK  status: ('A' for Active; 'I' for Inactive)
REMARK    1  A    between atoms: N_2  and  C_27
REMARK    2  A    between atoms: C_12  and  C_23
REMARK    3  A    between atoms: C_21  and  C_22
REMARK    4  A    between atoms: N_24  and  C_25
REMARK    5  A    between atoms: C_25  and  C_26
REMARK    6  A    between atoms: C_27  and  C_28
REMARK                            x       y       z     vdW  Elec       q    Type
REMARK                         _______ _______ _______ _____ _____    ______ ____
ROOT
ATOM      8  C   UNL     1       6.751   8.250   0.000  0.00  0.00    +0.001 C 
ATOM      9  C   UNL     1       5.452   7.500   0.000  0.00  0.00    +0.009 C 
ENDROOT
BRANCH   8   7
ATOM      1  N   UNL     1       2.854  12.000   0.000  0.00  0.00    -0.347 N 
ATOM      4  C   UNL     1       2.854  10.500   0.000  0.00  0.00    +0.087 A 
ATOM      5  C   UNL     1       4.153   9.750   0.000  0.00  0.00    +0.026 A 
ATOM      6  C   UNL     1       5.452  10.500   0.000  0.00  0.00    -0.015 A 
ATOM      7  C   UNL     1       6.751   9.750   0.000  0.00  0.00    +0.008 C 
ATOM     22  C   UNL     1       5.452  12.000   0.000  0.00  0.00    +0.006 A 
ATOM     23  C   UNL     1       6.751  12.750   0.000  0.00  0.00    +0.010 A 
ATOM     24  C   UNL     1       6.751  14.250   0.000  0.00  0.00    +0.001 A 
ATOM     25  C   UNL     1       5.452  15.000   0.000  0.00  0.00    +0.002 A 
ATOM     26  C   UNL     1       4.153  14.250   0.000  0.00  0.00    +0.026 A 
ATOM     27  C   UNL     1       4.153  12.750   0.000  0.00  0.00    +0.050 A 
BRANCH   1   2
ATOM      2  C   UNL     1       1.555  12.750   0.000  0.00  0.00    +0.118 C 
ATOM      3  C   UNL     1       1.555  14.250   0.000  0.00  0.00    +0.027 C 
ENDBRANCH   1   2
ENDBRANCH   8   7
BRANCH   9  10
ATOM     10  C   UNL     1       5.452   6.000   0.000  0.00  0.00    -0.006 A 
ATOM     11  C   UNL     1       4.153   5.250   0.000  0.00  0.00    +0.054 A 
ATOM     12  C   UNL     1       2.854   6.000   0.000  0.00  0.00    +0.015 A 
ATOM     13  C   UNL     1       1.555   5.250   0.000  0.00  0.00    +0.001 A 
ATOM     14  C   UNL     1       1.555   3.750   0.000  0.00  0.00    +0.006 A 
ATOM     15  C   UNL     1       2.854   3.000   0.000  0.00  0.00    +0.079 A 
ATOM     16  C   UNL     1       4.153   3.750   0.000  0.00  0.00    +0.215 A 
ATOM     17  N   UNL     1       5.452   3.000   0.000  0.00  0.00    -0.197 N 
ATOM     20  C   UNL     1       6.751   3.750   0.000  0.00  0.00    +0.310 A 
ATOM     21  C   UNL     1       6.751   5.250   0.000  0.00  0.00    +0.078 A 
BRANCH  17  18
ATOM     18  C   UNL     1       5.452   1.500   0.000  0.00  0.00    +0.354 C 
ATOM     19  C   UNL     1       4.153   0.750   0.000  0.00  0.00    +0.082 C 
ENDBRANCH  17  18
ENDBRANCH   9  10
TORSDOF 4