REMARK  Name = 129943
REMARK  4 active torsions:
REMARK  status: ('A' for Active; 'I' for Inactive)
REMARK    1  A    between atoms: N_4  and  C_8
REMARK    2  A    between atoms: C_8  and  C_9
REMARK    3  A    between atoms: C_9  and  N_10
REMARK    4  A    between atoms: C_9  and  C_17
REMARK                            x       y       z     vdW  Elec       q    Type
REMARK                         _______ _______ _______ _____ _____    ______ ____
ROOT
ATOM      9  C   UNL     1       3.522   5.899   0.000  0.00  0.00    +0.069 C 
ATOM     10  C   UNL     1       3.522   4.399   0.000  0.00  0.00    +0.025 C 
ENDROOT
BRANCH   9  11
ATOM     11  N   UNL     1       4.821   6.649   0.000  0.00  0.00    -0.282 NA
ATOM     12  C   UNL     1       4.821   8.149   0.000  0.00  0.00    +0.181 C 
ATOM     13  C   UNL     1       6.120   8.899   0.000  0.00  0.00    +0.233 C 
ATOM     14  N   UNL     1       7.419   8.149   0.000  0.00  0.00    -0.254 N 
ATOM     15  H   UNL     1       8.272   8.642   0.000  0.00  0.00    +0.158 HD
ATOM     16  C   UNL     1       7.419   6.649   0.000  0.00  0.00    +0.233 C 
ATOM     17  O   UNL     1       8.718   5.899   0.000  0.00  0.00    -0.274 OA
ATOM     18  O   UNL     1       6.120  10.400   0.000  0.00  0.00    -0.274 OA
ATOM     19  C   UNL     1       6.120   5.899   0.000  0.00  0.00    +0.181 C 
ENDBRANCH   9  11
BRANCH   9   8
ATOM      8  C   UNL     1       2.223   6.649   0.000  0.00  0.00    +0.104 C 
BRANCH   8   7
ATOM      1  C   UNL     1      -1.674   5.899   0.000  0.00  0.00    +0.233 C 
ATOM      2  N   UNL     1      -1.674   4.399   0.000  0.00  0.00    -0.254 N 
ATOM      3  H   UNL     1      -2.527   3.907   0.000  0.00  0.00    +0.158 HD
ATOM      4  C   UNL     1      -0.375   3.650   0.000  0.00  0.00    +0.233 C 
ATOM      5  O   UNL     1      -0.375   2.150   0.000  0.00  0.00    -0.274 OA
ATOM      6  C   UNL     1       0.924   4.399   0.000  0.00  0.00    +0.181 C 
ATOM      7  N   UNL     1       0.924   5.899   0.000  0.00  0.00    -0.284 NA
ATOM     20  O   UNL     1      -2.973   6.649   0.000  0.00  0.00    -0.274 OA
ATOM     21  C   UNL     1      -0.375   6.649   0.000  0.00  0.00    +0.181 C 
ENDBRANCH   8   7
ENDBRANCH   9   8
TORSDOF 3