REMARK  Name = 35489
REMARK  3 active torsions:
REMARK  status: ('A' for Active; 'I' for Inactive)
REMARK    1  A    between atoms: N_2  and  C_26
REMARK    2  A    between atoms: C_12  and  C_27
REMARK    3  A    between atoms: C_26  and  C_27
REMARK                            x       y       z     vdW  Elec       q    Type
REMARK                         _______ _______ _______ _____ _____    ______ ____
ROOT
ATOM      5  C   UNL     1       3.348  -6.000   0.000  0.00  0.00    +0.024 A 
ATOM      6  C   UNL     1       4.647  -5.250   0.000  0.00  0.00    +0.012 A 
ATOM      7  C   UNL     1       5.946  -6.000   0.000  0.00  0.00    +0.009 A 
ATOM      8  C   UNL     1       5.946  -7.500   0.000  0.00  0.00    -0.017 A 
ATOM      9  C   UNL     1       7.245  -8.250   0.000  0.00  0.00    +0.009 A 
ATOM     10  C   UNL     1       7.245  -9.750   0.000  0.00  0.00    +0.009 A 
ATOM     11  C   UNL     1       5.946 -10.500   0.000  0.00  0.00    -0.017 A 
ATOM     12  C   UNL     1       5.946 -12.000   0.000  0.00  0.00    +0.008 A 
ATOM     13  C   UNL     1       4.647 -12.750   0.000  0.00  0.00    +0.001 A 
ATOM     14  C   UNL     1       3.348 -12.000   0.000  0.00  0.00    +0.001 A 
ATOM     15  C   UNL     1       3.348 -10.500   0.000  0.00  0.00    +0.009 A 
ATOM     16  C   UNL     1       4.647  -9.750   0.000  0.00  0.00    -0.010 A 
ATOM     17  C   UNL     1       4.647  -8.250   0.000  0.00  0.00    -0.010 A 
ATOM     18  C   UNL     1       3.348  -7.500   0.000  0.00  0.00    +0.020 A 
ENDROOT
BRANCH   5   3
ATOM      3  C   UNL     1       2.049  -5.250   0.000  0.00  0.00    +0.228 C 
ATOM      4  O   UNL     1       0.750  -6.000   0.000  0.00  0.00    -0.285 OA
BRANCH   3   2
ATOM      2  C   UNL     1       2.049  -3.750   0.000  0.00  0.00    +0.436 C 
BRANCH   2   1
ATOM      1  N   UNL     1       3.348  -3.000   0.000  0.00  0.00    -0.196 N 
ATOM     19  C   UNL     1       3.348  -1.500   0.000  0.00  0.00    +0.310 A 
ATOM     20  C   UNL     1       4.647  -0.750   0.000  0.00  0.00    +0.078 A 
ATOM     21  C   UNL     1       5.946  -1.500   0.000  0.00  0.00    -0.007 A 
ATOM     22  C   UNL     1       5.946  -3.000   0.000  0.00  0.00    +0.046 A 
ATOM     23  C   UNL     1       7.245  -3.750   0.000  0.00  0.00    +0.014 A 
ATOM     24  C   UNL     1       8.544  -3.000   0.000  0.00  0.00    +0.001 A 
ATOM     25  C   UNL     1       8.544  -1.500   0.000  0.00  0.00    +0.001 A 
ATOM     26  C   UNL     1       7.245  -0.750   0.000  0.00  0.00    +0.009 A 
ATOM     27  C   UNL     1       4.647  -3.750   0.000  0.00  0.00    +0.318 A 
ENDBRANCH   2   1
ENDBRANCH   3   2
ENDBRANCH   5   3
TORSDOF 3