REMARK  Name = 185056
REMARK  9 active torsions:
REMARK  status: ('A' for Active; 'I' for Inactive)
REMARK    1  A    between atoms: O_1  and  C_13
REMARK    2  A    between atoms: O_1  and  C_17
REMARK    3  A    between atoms: O_3  and  C_7
REMARK    4  A    between atoms: O_3  and  C_18
REMARK    5  A    between atoms: N_5  and  N_21
REMARK    6  A    between atoms: C_10  and  C_20
REMARK    7  A    between atoms: C_17  and  C_18
REMARK    8  A    between atoms: N_21  and  C_22
REMARK    9  A    between atoms: C_22  and  N_24
REMARK                            x       y       z     vdW  Elec       q    Type
REMARK                         _______ _______ _______ _____ _____    ______ ____
ROOT
ATOM      6  C   UNL     1       8.819  -4.774   0.000  0.00  0.00    +0.150 A 
ATOM      7  C   UNL     1       8.819  -3.275   0.000  0.00  0.00    +0.050 A 
ATOM      8  C   UNL     1       7.520  -2.525   0.000  0.00  0.00    +0.033 A 
ATOM      9  C   UNL     1       6.221  -3.275   0.000  0.00  0.00    +0.084 A 
ATOM     19  N   UNL     1       6.221  -4.774   0.000  0.00  0.00    -0.250 NA
ATOM     20  C   UNL     1       7.520  -5.524   0.000  0.00  0.00    +0.157 A 
ENDROOT
BRANCH   9  10
ATOM     10  C   UNL     1       4.922  -2.525   0.000  0.00  0.00    +0.158 C 
ATOM     11  N   UNL     1       4.922  -1.025   0.000  0.00  0.00    -0.187 NA
BRANCH  11  12
ATOM     12  N   UNL     1       3.623  -0.275   0.000  0.00  0.00    -0.219 N 
ATOM     13  H   UNL     1       3.623   0.710   0.000  0.00  0.00    +0.176 HD
BRANCH  12  14
ATOM     14  C   UNL     1       2.324  -1.025   0.000  0.00  0.00    +0.147 C 
ATOM     18  S   UNL     1       2.324  -2.525   0.000  0.00  0.00    -0.017 S 
BRANCH  14  15
ATOM     15  N   UNL     1       1.025  -0.275   0.000  0.00  0.00    -0.339 N 
ATOM     16  H   UNL     1       0.172  -0.767   0.000  0.00  0.00    +0.144 HD
ATOM     17  H   UNL     1       1.024   0.710   0.000  0.00  0.00    +0.144 HD
ENDBRANCH  14  15
ENDBRANCH  12  14
ENDBRANCH  11  12
ENDBRANCH   9  10
BRANCH   6   5
ATOM      5  O   UNL     1      10.118  -5.524   0.000  0.00  0.00    -0.422 OA
BRANCH   5   3
ATOM      3  C   UNL     1      10.118  -7.024   0.000  0.00  0.00    +0.350 C 
ATOM      4  O   UNL     1       8.819  -7.774   0.000  0.00  0.00    -0.247 OA
BRANCH   3   2
ATOM      2  C   UNL     1      11.417  -7.774   0.000  0.00  0.00    +0.349 C 
BRANCH   2   1
ATOM      1  O   UNL     1      11.417  -9.274   0.000  0.00  0.00    -0.479 OA
BRANCH   1  21
ATOM     21  C   UNL     1      10.118 -10.025   0.000  0.00  0.00    +0.140 A 
ATOM     22  C   UNL     1      10.118 -11.525   0.000  0.00  0.00    +0.083 A 
ATOM     23  C   UNL     1       8.819 -12.275   0.000  0.00  0.00    +0.023 A 
ATOM     24  C   UNL     1       7.520 -11.525   0.000  0.00  0.00    +0.002 A 
ATOM     25  C   UNL     1       7.520 -10.025   0.000  0.00  0.00    +0.004 A 
ATOM     26 CL   UNL     1      11.417 -12.275   0.000  0.00  0.00    -0.080 Cl
ATOM     27  C   UNL     1       8.819  -9.274   0.000  0.00  0.00    +0.047 A 
ENDBRANCH   1  21
ENDBRANCH   2   1
ENDBRANCH   3   2
ENDBRANCH   5   3
ENDBRANCH   6   5
TORSDOF 9