REMARK  Name = 18268
REMARK  34 active torsions:
REMARK  status: ('A' for Active; 'I' for Inactive)
REMARK    1  A    between atoms: N_1  and  C_37
REMARK    2  A    between atoms: N_2  and  C_36
REMARK    3  A    between atoms: N_11  and  C_75
REMARK    4  A    between atoms: N_12  and  C_79
REMARK    5  A    between atoms: C_21  and  C_66
REMARK    6  A    between atoms: C_23  and  N_69
REMARK    7  A    between atoms: C_26  and  C_68
REMARK    8  A    between atoms: C_27  and  C_56
REMARK    9  A    between atoms: C_32  and  C_58
REMARK   10  A    between atoms: C_33  and  C_34
REMARK   11  A    between atoms: C_33  and  C_35
REMARK   12  A    between atoms: C_33  and  C_41
REMARK   13  A    between atoms: C_46  and  C_47
REMARK   14  A    between atoms: C_54  and  N_55
REMARK   15  A    between atoms: N_65  and  C_112
REMARK   16  A    between atoms: C_72  and  C_80
REMARK   17  A    between atoms: C_80  and  C_81
REMARK   18  A    between atoms: C_80  and  C_82
REMARK   19  A    between atoms: C_88  and  C_89
REMARK   20  A    between atoms: C_88  and  C_90
REMARK   21  A    between atoms: C_92  and  C_93
REMARK   22  A    between atoms: C_92  and  C_94
REMARK   23  A    between atoms: C_94  and  C_95
REMARK   24  A    between atoms: C_96  and  C_97
REMARK   25  A    between atoms: C_96  and  C_98
REMARK   26  A    between atoms: C_98  and  C_99
REMARK   27  A    between atoms: C_100  and  C_101
REMARK   28  A    between atoms: C_100  and  C_102
REMARK   29  A    between atoms: C_102  and  C_103
REMARK   30  A    between atoms: C_104  and  C_105
REMARK   31  A    between atoms: C_104  and  C_106
REMARK   32  A    between atoms: C_107  and  C_108
REMARK   33  A    between atoms: C_107  and  C_109
REMARK   34  A    between atoms: C_111  and  C_113
REMARK                            x       y       z     vdW  Elec       q    Type
REMARK                         _______ _______ _______ _____ _____    ______ ____
ROOT
ATOM      1  C   UNL     1      -2.802  30.881   0.000  0.00  0.00    +0.000 C 
ATOM      2 XX   UNL     1      -1.756  29.807   0.000  0.00  0.00    +0.000 Xx
ATOM      3  C   UNL     1      -4.256  30.512   0.000  0.00  0.00    +0.000 C 
ATOM      4  C   UNL     1      -2.395  32.325   0.000  0.00  0.00    +0.000 C 
ENDROOT
TORSDOF 0