REMARK  Name = 36437
REMARK  7 active torsions:
REMARK  status: ('A' for Active; 'I' for Inactive)
REMARK    1  A    between atoms: C_2  and  O_18
REMARK    2  A    between atoms: C_3  and  C_24
REMARK    3  A    between atoms: C_10  and  C_22
REMARK    4  A    between atoms: C_15  and  O_23
REMARK    5  A    between atoms: C_15  and  C_25
REMARK    6  A    between atoms: O_18  and  C_21
REMARK    7  A    between atoms: C_21  and  C_27
REMARK                            x       y       z     vdW  Elec       q    Type
REMARK                         _______ _______ _______ _____ _____    ______ ____
ROOT
ATOM      1  C   UNL     1      -5.653  -2.002   0.000  0.00  0.00    +0.075 C 
ATOM      2  C   UNL     1      -6.952  -2.752   0.000  0.00  0.00    -0.073 C 
ATOM      3  C   UNL     1      -8.251  -2.002   0.000  0.00  0.00    +0.039 C 
ATOM      4  C   UNL     1      -6.952  -4.252   0.000  0.00  0.00    -0.027 C 
ATOM      5  C   UNL     1      -8.251  -5.002   0.000  0.00  0.00    +0.031 C 
ATOM      6  C   UNL     1      -9.550  -4.252   0.000  0.00  0.00    +0.034 C 
ATOM      7  C   UNL     1     -10.849  -5.002   0.000  0.00  0.00    -0.076 C 
ATOM      8  C   UNL     1     -12.148  -4.252   0.000  0.00  0.00    +0.039 C 
ATOM      9  C   UNL     1     -10.849  -6.502   0.000  0.00  0.00    -0.028 C 
ATOM     10  C   UNL     1      -9.550  -7.252   0.000  0.00  0.00    +0.030 C 
ATOM     11  C   UNL     1      -8.251  -6.502   0.000  0.00  0.00    +0.042 C 
ATOM     12  C   UNL     1      -6.952  -7.252   0.000  0.00  0.00    +0.100 C 
ATOM     13  C   UNL     1      -5.653  -8.002   0.000  0.00  0.00    +0.045 C 
ATOM     16  C   UNL     1      -5.653  -6.502   0.000  0.00  0.00    +0.209 C 
ATOM     17  O   UNL     1      -4.354  -7.252   0.000  0.00  0.00    -0.455 OA
ATOM     18  C   UNL     1      -3.055  -6.502   0.000  0.00  0.00    +0.335 C 
ATOM     19  O   UNL     1      -1.756  -7.252   0.000  0.00  0.00    -0.245 OA
ATOM     20  C   UNL     1      -3.055  -5.002   0.000  0.00  0.00    +0.036 C 
ATOM     21  C   UNL     1      -1.756  -4.252   0.000  0.00  0.00    +0.020 C 
ATOM     22  C   UNL     1      -4.354  -4.252   0.000  0.00  0.00    +0.070 C 
ATOM     23  C   UNL     1      -5.653  -5.002   0.000  0.00  0.00    +0.059 C 
ATOM     24  C   UNL     1      -4.354  -2.752   0.000  0.00  0.00    +0.188 C 
ENDROOT
BRANCH  12  14
ATOM     14  O   UNL     1      -7.702  -8.551   0.000  0.00  0.00    -0.385 OA
ATOM     15  H   UNL     1      -8.672  -8.551   0.000  0.00  0.00    +0.210 HD
ENDBRANCH  12  14
BRANCH  24  25
ATOM     25  O   UNL     1      -3.055  -2.002   0.000  0.00  0.00    -0.461 OA
BRANCH  25  26
ATOM     26  C   UNL     1      -3.055  -0.502   0.000  0.00  0.00    +0.304 C 
ATOM     27  C   UNL     1      -4.354   0.248   0.000  0.00  0.00    +0.136 C 
ATOM     28  O   UNL     1      -1.756   0.248   0.000  0.00  0.00    -0.251 OA
ENDBRANCH  25  26
ENDBRANCH  24  25
TORSDOF 3