REMARK  Name = 1906
REMARK  2 active torsions:
REMARK  status: ('A' for Active; 'I' for Inactive)
REMARK    1  A    between atoms: N_11  and  C_12
REMARK    2  A    between atoms: C_12  and  S_16
REMARK                            x       y       z     vdW  Elec       q    Type
REMARK                         _______ _______ _______ _____ _____    ______ ____
ROOT
ATOM      1  C   UNL     1      -6.912  -0.750   0.000  0.00  0.00    +0.106 C 
ATOM      2  N   UNL     1      -6.162  -2.049   0.000  0.00  0.00    -0.319 N 
ATOM      7  C   UNL     1      -6.912  -3.348   0.000  0.00  0.00    +0.106 C 
ATOM      8  C   UNL     1      -8.412  -3.348   0.000  0.00  0.00    +0.019 C 
ATOM      9  C   UNL     1      -9.162  -2.049   0.000  0.00  0.00    +0.003 C 
ATOM     10  C   UNL     1      -8.412  -0.750   0.000  0.00  0.00    +0.019 C 
ENDROOT
BRANCH   2   3
ATOM      3  C   UNL     1      -4.662  -2.049   0.000  0.00  0.00    +0.106 C 
ATOM      6  S   UNL     1      -3.912  -0.750   0.000  0.00  0.00    -0.028 S 
BRANCH   3   4
ATOM      4  S   UNL     1      -3.912  -3.348   0.000  0.00  0.00    -0.120 S 
ATOM      5  H   UNL     1      -4.592  -4.526   0.000  0.00  0.00    +0.109 HD
ENDBRANCH   3   4
ENDBRANCH   2   3
TORSDOF 2