REMARK  Name = 13966
REMARK  2 active torsions:
REMARK  status: ('A' for Active; 'I' for Inactive)
REMARK    1  A    between atoms: C_7  and  N_17
REMARK    2  A    between atoms: C_10  and  N_16
REMARK                            x       y       z     vdW  Elec       q    Type
REMARK                         _______ _______ _______ _____ _____    ______ ____
ROOT
ATOM      1  C   UNL     1      -3.713  -1.995   0.000  0.00  0.00    +0.012 A 
ATOM      2  C   UNL     1      -2.221  -1.838   0.000  0.00  0.00    +0.023 A 
ATOM      3  C   UNL     1      -1.340  -3.052   0.000  0.00  0.00    +0.026 A 
ATOM      7  C   UNL     1      -1.950  -4.422   0.000  0.00  0.00    +0.050 A 
ATOM      8  C   UNL     1      -3.442  -4.579   0.000  0.00  0.00    +0.103 A 
ATOM      9  S   UNL     1      -4.323  -5.793   0.000  0.00  0.00    +0.026 S 
ATOM     10  O   UNL     1      -2.897  -6.256   0.000  0.00  0.00    -0.164 OA
ATOM     11  O   UNL     1      -4.787  -7.219   0.000  0.00  0.00    -0.164 OA
ATOM     12  C   UNL     1      -5.750  -5.329   0.000  0.00  0.00    +0.103 A 
ATOM     13  C   UNL     1      -7.049  -6.079   0.000  0.00  0.00    +0.050 A 
ATOM     14  C   UNL     1      -8.348  -5.329   0.000  0.00  0.00    +0.026 A 
ATOM     18  C   UNL     1      -8.348  -3.829   0.000  0.00  0.00    +0.023 A 
ATOM     19  C   UNL     1      -7.049  -3.079   0.000  0.00  0.00    +0.012 A 
ATOM     20  C   UNL     1      -5.750  -3.829   0.000  0.00  0.00    +0.009 A 
ATOM     21  C   UNL     1      -4.323  -3.365   0.000  0.00  0.00    +0.009 A 
ENDROOT
BRANCH   3   4
ATOM      4  N   UNL     1       0.152  -2.895   0.000  0.00  0.00    -0.358 N 
ATOM      5  H   UNL     1       0.553  -1.996   0.000  0.00  0.00    +0.142 HD
ATOM      6  H   UNL     1       0.731  -3.691   0.000  0.00  0.00    +0.142 HD
ENDBRANCH   3   4
BRANCH  14  15
ATOM     15  N   UNL     1      -9.647  -6.079   0.000  0.00  0.00    -0.358 N 
ATOM     16  H   UNL     1      -9.647  -7.063   0.000  0.00  0.00    +0.142 HD
ATOM     17  H   UNL     1     -10.500  -5.587   0.000  0.00  0.00    +0.142 HD
ENDBRANCH  14  15
TORSDOF 2