REMARK  Name = 296961
REMARK  10 active torsions:
REMARK  status: ('A' for Active; 'I' for Inactive)
REMARK    1  A    between atoms: S_1  and  P_2
REMARK    2  A    between atoms: S_1  and  C_8
REMARK    3  A    between atoms: P_2  and  O_10
REMARK    4  A    between atoms: P_2  and  O_11
REMARK    5  A    between atoms: C_4  and  C_5
REMARK    6  A    between atoms: C_4  and  N_12
REMARK    7  A    between atoms: C_5  and  C_6
REMARK    8  A    between atoms: C_6  and  N_9
REMARK    9  A    between atoms: C_7  and  C_8
REMARK   10  A    between atoms: C_7  and  N_9
REMARK                            x       y       z     vdW  Elec       q    Type
REMARK                         _______ _______ _______ _____ _____    ______ ____
ROOT
ATOM      3  C   UNL     1      -7.732  -5.946   0.000  0.00  0.00    +0.092 C 
ENDROOT
BRANCH   3   4
ATOM      4  N   UNL     1      -8.482  -4.647   0.000  0.00  0.00    -0.315 NA
ATOM      5  H   UNL     1      -9.502  -4.647   0.000  0.00  0.00    +0.122 HD
BRANCH   4   6
ATOM      6  C   UNL     1      -7.732  -3.348   0.000  0.00  0.00    +0.082 C 
BRANCH   6   7
ATOM      7  C   UNL     1      -8.482  -2.049   0.000  0.00  0.00    +0.030 C 
BRANCH   7   8
ATOM      8  C   UNL     1      -9.982  -2.049   0.000  0.00  0.00    +0.079 C 
BRANCH   8   9
ATOM      9  N   UNL     1     -10.732  -0.750   0.000  0.00  0.00    -0.330 NA
ATOM     10  H   UNL     1     -11.752  -0.750   0.000  0.00  0.00    +0.118 HD
ATOM     11  H   UNL     1     -10.222   0.133   0.000  0.00  0.00    +0.118 HD
ENDBRANCH   8   9
ENDBRANCH   7   8
ENDBRANCH   6   7
ENDBRANCH   4   6
ENDBRANCH   3   4
BRANCH   3   2
ATOM      2  C   UNL     1      -6.232  -5.946   0.000  0.00  0.00    +0.096 C 
BRANCH   2   1
ATOM      1  S   UNL     1      -5.482  -7.245   0.000  0.00  0.00    -0.040 S 
BRANCH   1  12
ATOM     12  P   UNL     1      -3.982  -7.245   0.000  0.00  0.00    +0.386 P 
ATOM     17  O   UNL     1      -3.982  -5.745   0.000  0.00  0.00    -0.246 OA
BRANCH  12  13
ATOM     13  O   UNL     1      -2.482  -7.245   0.000  0.00  0.00    -0.316 OA
ATOM     14  H   UNL     1      -1.997  -8.085   0.000  0.00  0.00    +0.221 HD
ENDBRANCH  12  13
BRANCH  12  15
ATOM     15  O   UNL     1      -3.982  -8.745   0.000  0.00  0.00    -0.316 OA
ATOM     16  H   UNL     1      -4.822  -9.230   0.000  0.00  0.00    +0.221 HD
ENDBRANCH  12  15
ENDBRANCH   1  12
ENDBRANCH   2   1
ENDBRANCH   3   2
TORSDOF 10