REMARK  Name = 245432
REMARK  17 active torsions:
REMARK  status: ('A' for Active; 'I' for Inactive)
REMARK    1  A    between atoms: C_3  and  C_20
REMARK    2  A    between atoms: C_4  and  O_8
REMARK    3  A    between atoms: C_5  and  O_16
REMARK    4  A    between atoms: C_6  and  O_21
REMARK    5  A    between atoms: C_7  and  N_25
REMARK    6  A    between atoms: O_8  and  C_9
REMARK    7  A    between atoms: C_9  and  C_11
REMARK    8  A    between atoms: O_12  and  C_13
REMARK    9  A    between atoms: O_12  and  C_20
REMARK   10  A    between atoms: C_13  and  C_15
REMARK   11  A    between atoms: O_16  and  C_17
REMARK   12  A    between atoms: C_17  and  C_19
REMARK   13  A    between atoms: O_21  and  C_22
REMARK   14  A    between atoms: C_22  and  C_24
REMARK   15  A    between atoms: N_28  and  N_29
REMARK   16  A    between atoms: N_28  and  C_31
REMARK   17  A    between atoms: C_31  and  C_32
REMARK                            x       y       z     vdW  Elec       q    Type
REMARK                         _______ _______ _______ _____ _____    ______ ____
ROOT
ATOM      1  O   UNL     1      -3.348   7.500   0.000  0.00  0.00    -0.345 OA
ATOM      2  C   UNL     1      -3.348   6.000   0.000  0.00  0.00    +0.252 C 
ATOM     13  C   UNL     1      -4.647   5.250   0.000  0.00  0.00    +0.267 C 
ATOM     18  C   UNL     1      -5.946   6.000   0.000  0.00  0.00    +0.264 C 
ATOM     23  C   UNL     1      -5.946   7.500   0.000  0.00  0.00    +0.253 C 
ATOM     28  C   UNL     1      -4.647   8.250   0.000  0.00  0.00    +0.202 C 
ENDROOT
BRANCH   2   3
ATOM      3  N   UNL     1      -1.938   5.487   0.000  0.00  0.00    -0.269 N 
ATOM      4  H   UNL     1      -1.684   4.536   0.000  0.00  0.00    +0.153 HD
ATOM      5  C   UNL     1      -0.974   6.636   0.000  0.00  0.00    +0.326 C 
ATOM      6  N   UNL     1       0.503   6.376   0.000  0.00  0.00    -0.140 N 
ATOM     12  O   UNL     1      -1.487   8.046   0.000  0.00  0.00    -0.251 OA
BRANCH   6  10
ATOM     10  N   UNL     1       1.467   7.525   0.000  0.00  0.00    +0.053 NA
ATOM     11  O   UNL     1       2.944   7.264   0.000  0.00  0.00    -0.126 OA
ENDBRANCH   6  10
BRANCH   6   7
ATOM      7  C   UNL     1       1.016   4.966   0.000  0.00  0.00    +0.155 C 
BRANCH   7   8
ATOM      8  C   UNL     1       2.493   4.705   0.000  0.00  0.00    +0.130 C 
ATOM      9 CL   UNL     1       3.457   5.855   0.000  0.00  0.00    -0.124 Cl
ENDBRANCH   7   8
ENDBRANCH   6   7
ENDBRANCH   2   3
BRANCH  13  14
ATOM     14  O   UNL     1      -4.647   3.750   0.000  0.00  0.00    -0.453 OA
BRANCH  14  15
ATOM     15  C   UNL     1      -5.946   3.000   0.000  0.00  0.00    +0.304 C 
ATOM     16  C   UNL     1      -5.946   1.500   0.000  0.00  0.00    +0.136 C 
ATOM     17  O   UNL     1      -7.245   3.750   0.000  0.00  0.00    -0.251 OA
ENDBRANCH  14  15
ENDBRANCH  13  14
BRANCH  18  19
ATOM     19  O   UNL     1      -4.446   6.000   0.000  0.00  0.00    -0.454 OA
BRANCH  19  20
ATOM     20  C   UNL     1      -3.696   4.701   0.000  0.00  0.00    +0.304 C 
ATOM     21  C   UNL     1      -2.196   4.701   0.000  0.00  0.00    +0.136 C 
ATOM     22  O   UNL     1      -4.446   3.402   0.000  0.00  0.00    -0.251 OA
ENDBRANCH  19  20
ENDBRANCH  18  19
BRANCH  23  24
ATOM     24  O   UNL     1      -7.245   8.250   0.000  0.00  0.00    -0.455 OA
BRANCH  24  25
ATOM     25  C   UNL     1      -8.544   7.500   0.000  0.00  0.00    +0.304 C 
ATOM     26  C   UNL     1      -9.843   8.250   0.000  0.00  0.00    +0.136 C 
ATOM     27  O   UNL     1      -8.544   6.000   0.000  0.00  0.00    -0.251 OA
ENDBRANCH  24  25
ENDBRANCH  23  24
BRANCH  28  29
ATOM     29  C   UNL     1      -4.647   9.750   0.000  0.00  0.00    +0.267 C 
BRANCH  29  30
ATOM     30  O   UNL     1      -3.348  10.500   0.000  0.00  0.00    -0.462 OA
BRANCH  30  31
ATOM     31  C   UNL     1      -3.348  12.000   0.000  0.00  0.00    +0.304 C 
ATOM     32  C   UNL     1      -4.647  12.750   0.000  0.00  0.00    +0.136 C 
ATOM     33  O   UNL     1      -2.049  12.750   0.000  0.00  0.00    -0.251 OA
ENDBRANCH  30  31
ENDBRANCH  29  30
ENDBRANCH  28  29
TORSDOF 13