REMARK  Name = 32992
REMARK  15 active torsions:
REMARK  status: ('A' for Active; 'I' for Inactive)
REMARK    1  A    between atoms: O_2  and  C_6
REMARK    2  A    between atoms: O_2  and  C_24
REMARK    3  A    between atoms: C_4  and  O_33
REMARK    4  A    between atoms: C_5  and  O_27
REMARK    5  A    between atoms: C_15  and  O_25
REMARK    6  A    between atoms: C_17  and  N_29
REMARK    7  A    between atoms: C_20  and  C_38
REMARK    8  A    between atoms: C_21  and  O_37
REMARK    9  A    between atoms: C_22  and  O_36
REMARK   10  A    between atoms: C_23  and  O_35
REMARK   11  A    between atoms: O_25  and  C_26
REMARK   12  A    between atoms: O_27  and  C_28
REMARK   13  A    between atoms: C_30  and  C_32
REMARK   14  A    between atoms: O_33  and  C_34
REMARK   15  A    between atoms: C_38  and  O_39
REMARK                            x       y       z     vdW  Elec       q    Type
REMARK                         _______ _______ _______ _____ _____    ______ ____
ROOT
ATOM      1  O   UNL     1      -4.455 -14.751   0.000  0.00  0.00    -0.284 OA
ATOM      2  C   UNL     1      -3.216 -13.906   0.000  0.00  0.00    +0.221 A 
ATOM      3  C   UNL     1      -1.917 -14.656   0.000  0.00  0.00    +0.060 A 
ATOM      4  C   UNL     1      -0.521 -14.108   0.000  0.00  0.00    -0.016 A 
ATOM      5  C   UNL     1       0.324 -15.348   0.000  0.00  0.00    +0.104 C 
ATOM     11  C   UNL     1       1.820 -15.460   0.000  0.00  0.00    +0.032 C 
ATOM     12  C   UNL     1       2.840 -14.360   0.000  0.00  0.00    +0.038 C 
ATOM     13  C   UNL     1       2.617 -12.877   0.000  0.00  0.00    -0.032 A 
ATOM     14  C   UNL     1       1.318 -12.127   0.000  0.00  0.00    +0.031 A 
ATOM     15  C   UNL     1       1.318 -10.627   0.000  0.00  0.00    +0.173 A 
ATOM     18  C   UNL     1       2.617  -9.877   0.000  0.00  0.00    +0.204 A 
ATOM     21  C   UNL     1       3.916 -10.627   0.000  0.00  0.00    +0.169 A 
ATOM     38  C   UNL     1       3.916 -12.127   0.000  0.00  0.00    +0.054 A 
ATOM     39  C   UNL     1      -0.079 -12.675   0.000  0.00  0.00    -0.009 A 
ATOM     40  C   UNL     1      -0.924 -11.435   0.000  0.00  0.00    +0.012 A 
ATOM     41  C   UNL     1      -2.419 -11.323   0.000  0.00  0.00    +0.050 A 
ATOM     42  C   UNL     1      -3.440 -12.423   0.000  0.00  0.00    +0.167 A 
ENDROOT
BRANCH   5   6
ATOM      6  N   UNL     1      -0.426 -16.647   0.000  0.00  0.00    -0.309 N 
ATOM      7  H   UNL     1       0.067 -17.499   0.000  0.00  0.00    +0.149 HD
ATOM      8  C   UNL     1      -1.926 -16.647   0.000  0.00  0.00    +0.210 C 
ATOM      9  C   UNL     1      -2.676 -17.946   0.000  0.00  0.00    +0.109 C 
ATOM     10  O   UNL     1      -2.676 -15.348   0.000  0.00  0.00    -0.276 OA
ENDBRANCH   5   6
BRANCH  15  16
ATOM     16  O   UNL     1       0.019  -9.877   0.000  0.00  0.00    -0.491 OA
ATOM     17  C   UNL     1      -1.280 -10.627   0.000  0.00  0.00    +0.277 C 
ENDBRANCH  15  16
BRANCH  18  19
ATOM     19  O   UNL     1       2.617  -8.377   0.000  0.00  0.00    -0.488 OA
ATOM     20  C   UNL     1       1.318  -7.627   0.000  0.00  0.00    +0.277 C 
ENDBRANCH  18  19
BRANCH  42  43
ATOM     43  O   UNL     1      -4.873 -11.981   0.000  0.00  0.00    -0.491 OA
ATOM     44  C   UNL     1      -5.207 -10.518   0.000  0.00  0.00    +0.277 C 
ENDBRANCH  42  43
BRANCH  21  22
ATOM     22  O   UNL     1       5.215  -9.877   0.000  0.00  0.00    -0.457 OA
BRANCH  22  23
ATOM     23  C   UNL     1       5.215  -8.377   0.000  0.00  0.00    +0.339 C 
ATOM     24  C   UNL     1       6.514  -7.627   0.000  0.00  0.00    +0.214 C 
ATOM     27  C   UNL     1       6.514  -6.127   0.000  0.00  0.00    +0.180 C 
ATOM     30  C   UNL     1       5.215  -5.377   0.000  0.00  0.00    +0.177 C 
ATOM     33  C   UNL     1       3.916  -6.127   0.000  0.00  0.00    +0.179 C 
ATOM     37  O   UNL     1       3.916  -7.627   0.000  0.00  0.00    -0.331 OA
BRANCH  24  25
ATOM     25  O   UNL     1       7.813  -8.377   0.000  0.00  0.00    -0.383 OA
ATOM     26  H   UNL     1       7.813  -9.347   0.000  0.00  0.00    +0.210 HD
ENDBRANCH  24  25
BRANCH  27  28
ATOM     28  O   UNL     1       7.813  -5.377   0.000  0.00  0.00    -0.386 OA
ATOM     29  H   UNL     1       8.653  -5.862   0.000  0.00  0.00    +0.210 HD
ENDBRANCH  27  28
BRANCH  30  31
ATOM     31  O   UNL     1       5.215  -3.877   0.000  0.00  0.00    -0.386 OA
ATOM     32  H   UNL     1       6.055  -3.392   0.000  0.00  0.00    +0.210 HD
ENDBRANCH  30  31
BRANCH  33  34
ATOM     34  C   UNL     1       2.617  -5.377   0.000  0.00  0.00    +0.190 C 
BRANCH  34  35
ATOM     35  O   UNL     1       2.617  -3.877   0.000  0.00  0.00    -0.392 OA
ATOM     36  H   UNL     1       3.457  -3.392   0.000  0.00  0.00    +0.210 HD
ENDBRANCH  34  35
ENDBRANCH  33  34
ENDBRANCH  22  23
ENDBRANCH  21  22
TORSDOF 11