REMARK  Name = 262665
REMARK  7 active torsions:
REMARK  status: ('A' for Active; 'I' for Inactive)
REMARK    1  A    between atoms: O_1  and  C_2
REMARK    2  A    between atoms: O_1  and  C_15
REMARK    3  A    between atoms: O_5  and  C_7
REMARK    4  A    between atoms: O_5  and  C_22
REMARK    5  A    between atoms: C_8  and  C_23
REMARK    6  A    between atoms: C_13  and  C_24
REMARK    7  A    between atoms: C_16  and  C_22
REMARK                            x       y       z     vdW  Elec       q    Type
REMARK                         _______ _______ _______ _____ _____    ______ ____
ROOT
ATOM      3  C   UNL     1      -5.183   5.597   0.000  0.00  0.00    +0.124 A 
ATOM      4  C   UNL     1      -4.433   4.298   0.000  0.00  0.00    +0.046 A 
ATOM      5  C   UNL     1      -2.933   4.298   0.000  0.00  0.00    +0.015 A 
ATOM      6  C   UNL     1      -2.183   5.597   0.000  0.00  0.00    +0.019 A 
ATOM     20  C   UNL     1      -2.933   6.896   0.000  0.00  0.00    +0.132 A 
ATOM     29  C   UNL     1      -4.433   6.896   0.000  0.00  0.00    +0.091 A 
ENDROOT
BRANCH   6   7
ATOM      7  C   UNL     1      -0.683   5.597   0.000  0.00  0.00    +0.046 C 
ATOM      8  C   UNL     1       0.067   6.896   0.000  0.00  0.00    +0.153 C 
ATOM      9  C   UNL     1       1.559   7.053   0.000  0.00  0.00    +0.364 C 
ATOM     10  O   UNL     1       2.562   5.938   0.000  0.00  0.00    -0.243 OA
ATOM     11  O   UNL     1       1.870   8.520   0.000  0.00  0.00    -0.402 OA
ATOM     12  C   UNL     1       0.571   9.270   0.000  0.00  0.00    +0.232 C 
ATOM     19  N   UNL     1      -0.543   8.266   0.000  0.00  0.00    -0.205 NA
BRANCH  12  13
ATOM     13  C   UNL     1       0.415  10.762   0.000  0.00  0.00    +0.037 A 
ATOM     14  C   UNL     1       1.628  11.643   0.000  0.00  0.00    +0.013 A 
ATOM     15  C   UNL     1       1.471  13.135   0.000  0.00  0.00    +0.001 A 
ATOM     16  C   UNL     1       0.101  13.745   0.000  0.00  0.00    +0.000 A 
ATOM     17  C   UNL     1      -1.113  12.864   0.000  0.00  0.00    +0.001 A 
ATOM     18  C   UNL     1      -0.956  11.372   0.000  0.00  0.00    +0.013 A 
ENDBRANCH  12  13
ENDBRANCH   6   7
BRANCH   3   1
ATOM      1  O   UNL     1      -6.683   5.597   0.000  0.00  0.00    -0.495 OA
ATOM      2  C   UNL     1      -7.433   6.896   0.000  0.00  0.00    +0.277 C 
ENDBRANCH   3   1
BRANCH  20  21
ATOM     21  O   UNL     1      -2.183   8.195   0.000  0.00  0.00    -0.487 OA
BRANCH  21  22
ATOM     22  C   UNL     1      -2.933   9.494   0.000  0.00  0.00    +0.264 C 
BRANCH  22  23
ATOM     23  C   UNL     1      -2.183  10.793   0.000  0.00  0.00    -0.010 A 
ATOM     24  C   UNL     1      -3.683  10.793   0.000  0.00  0.00    +0.007 A 
ATOM     25  C   UNL     1      -4.433   9.494   0.000  0.00  0.00    +0.000 A 
ATOM     26  C   UNL     1      -3.683   8.195   0.000  0.00  0.00    +0.000 A 
ATOM     27  C   UNL     1      -2.183   8.195   0.000  0.00  0.00    +0.000 A 
ATOM     28  C   UNL     1      -1.433   9.494   0.000  0.00  0.00    +0.007 A 
ENDBRANCH  22  23
ENDBRANCH  21  22
ENDBRANCH  20  21
TORSDOF 6