REMARK  Name = 12825
REMARK  2 active torsions:
REMARK  status: ('A' for Active; 'I' for Inactive)
REMARK    1  A    between atoms: C_5  and  C_8
REMARK    2  A    between atoms: C_11  and  O_18
REMARK                            x       y       z     vdW  Elec       q    Type
REMARK                         _______ _______ _______ _____ _____    ______ ____
ROOT
ATOM      1  N   UNL     1      -6.221   1.226   0.000  0.00  0.00    -0.245 NA
ATOM      2  C   UNL     1      -7.520   1.976   0.000  0.00  0.00    +0.075 A 
ATOM      3  C   UNL     1      -7.520   3.475   0.000  0.00  0.00    +0.028 A 
ATOM      4  C   UNL     1      -8.819   4.226   0.000  0.00  0.00    +0.002 A 
ATOM      5  C   UNL     1     -10.118   3.475   0.000  0.00  0.00    +0.001 A 
ATOM      6  C   UNL     1     -10.118   1.976   0.000  0.00  0.00    +0.013 A 
ATOM      7  C   UNL     1      -8.819   1.226   0.000  0.00  0.00    +0.043 A 
ATOM      8  C   UNL     1      -8.819  -0.275   0.000  0.00  0.00    +0.142 A 
ATOM     11  C   UNL     1      -7.520  -1.025   0.000  0.00  0.00    +0.086 A 
ATOM     12 BR   UNL     1      -7.520  -2.525   0.000  0.00  0.00    -0.044 Br
ATOM     13  C   UNL     1      -6.221  -0.275   0.000  0.00  0.00    +0.089 A 
ENDROOT
BRANCH  13  14
ATOM     14  C   UNL     1      -4.922  -1.025   0.000  0.00  0.00    +0.002 A 
ATOM     15  C   UNL     1      -4.922  -2.525   0.000  0.00  0.00    +0.010 A 
ATOM     16  C   UNL     1      -3.623  -3.275   0.000  0.00  0.00    +0.001 A 
ATOM     17  C   UNL     1      -2.324  -2.525   0.000  0.00  0.00    +0.000 A 
ATOM     18  C   UNL     1      -2.324  -1.025   0.000  0.00  0.00    +0.001 A 
ATOM     19  C   UNL     1      -3.623  -0.275   0.000  0.00  0.00    +0.010 A 
ENDBRANCH  13  14
BRANCH   8   9
ATOM      9  O   UNL     1     -10.118  -1.025   0.000  0.00  0.00    -0.505 OA
ATOM     10  H   UNL     1     -10.929  -0.556   0.000  0.00  0.00    +0.292 HD
ENDBRANCH   8   9
TORSDOF 2