REMARK  Name = 184403
REMARK  5 active torsions:
REMARK  status: ('A' for Active; 'I' for Inactive)
REMARK    1  A    between atoms: N_3  and  C_29
REMARK    2  A    between atoms: C_8  and  O_30
REMARK    3  A    between atoms: C_11  and  O_31
REMARK    4  A    between atoms: C_14  and  O_27
REMARK    5  A    between atoms: C_17  and  O_28
REMARK                            x       y       z     vdW  Elec       q    Type
REMARK                         _______ _______ _______ _____ _____    ______ ____
ROOT
ATOM      1 CL   UNL     1      -0.750  -0.750   0.000  0.00  0.00    -0.145 Cl
ATOM      2  H   UNL     1       0.580  -0.750   0.000  0.00  0.00    +0.145 HD
ENDROOT
TORSDOF 0