REMARK  Name = 304421
REMARK  18 active torsions:
REMARK  status: ('A' for Active; 'I' for Inactive)
REMARK    1  A    between atoms: C_1  and  C_24
REMARK    2  A    between atoms: C_2  and  C_25
REMARK    3  A    between atoms: C_3  and  C_39
REMARK    4  A    between atoms: C_4  and  N_48
REMARK    5  A    between atoms: C_5  and  O_57
REMARK    6  A    between atoms: C_6  and  O_58
REMARK    7  A    between atoms: C_7  and  O_59
REMARK    8  A    between atoms: C_24  and  C_44
REMARK    9  A    between atoms: C_25  and  C_45
REMARK   10  A    between atoms: C_29  and  C_43
REMARK   11  A    between atoms: C_31  and  O_57
REMARK   12  A    between atoms: C_38  and  O_60
REMARK   13  A    between atoms: C_39  and  O_60
REMARK   14  A    between atoms: C_40  and  C_43
REMARK   15  A    between atoms: C_40  and  O_58
REMARK   16  A    between atoms: C_41  and  C_46
REMARK   17  A    between atoms: C_41  and  O_59
REMARK   18  A    between atoms: C_46  and  O_51
REMARK                            x       y       z     vdW  Elec       q    Type
REMARK                         _______ _______ _______ _____ _____    ______ ____
ROOT
ATOM     26  C   UNL     1      -0.938   0.293   0.000  0.00  0.00    +0.017 A 
ATOM     27  C   UNL     1      -2.436   0.206   0.000  0.00  0.00    +0.126 A 
ATOM     30  C   UNL     1      -3.109  -1.135   0.000  0.00  0.00    +0.069 A 
ATOM     31  C   UNL     1      -2.285  -2.388   0.000  0.00  0.00    +0.037 A 
ATOM     32  N   UNL     1      -2.665  -3.839   0.000  0.00  0.00    -0.325 N 
ATOM     33  C   UNL     1      -1.402  -4.649   0.000  0.00  0.00    +0.132 C 
ATOM     34  C   UNL     1      -1.159  -6.129   0.000  0.00  0.00    +0.219 C 
ATOM     41  C   UNL     1       0.245  -6.658   0.000  0.00  0.00    +0.232 C 
ATOM     46  C   UNL     1       1.405  -5.708   0.000  0.00  0.00    +0.045 C 
ATOM     47  C   UNL     1       1.162  -4.227   0.000  0.00  0.00    +0.083 C 
ATOM     48  N   UNL     1       2.322  -3.277   0.000  0.00  0.00    -0.294 NA
ATOM     49  C   UNL     1       3.725  -3.806   0.000  0.00  0.00    +0.111 C 
ATOM     50  C   UNL     1       3.969  -5.286   0.000  0.00  0.00    -0.015 C 
ATOM     51  C   UNL     1       1.387  -1.962   0.000  0.00  0.00    +0.086 C 
ATOM     52  C   UNL     1      -0.094  -2.205   0.000  0.00  0.00    +0.030 C 
ATOM     55  C   UNL     1       2.809  -6.237   0.000  0.00  0.00    -0.018 C 
ATOM     56  C   UNL     1      -0.242  -3.698   0.000  0.00  0.00    +0.037 C 
ATOM     57  C   UNL     1      -4.062  -4.385   0.000  0.00  0.00    +0.129 C 
ATOM     58  C   UNL     1      -0.787  -2.301   0.000  0.00  0.00    -0.016 A 
ATOM     59  C   UNL     1      -0.114  -0.960   0.000  0.00  0.00    +0.014 A 
ENDROOT
BRANCH  26  21
ATOM      3  C   UNL     1      -5.226   5.019   0.000  0.00  0.00    +0.135 C 
ATOM      4  O   UNL     1      -6.375   4.055   0.000  0.00  0.00    -0.359 OA
ATOM      5  C   UNL     1      -4.966   3.542   0.000  0.00  0.00    +0.164 C 
ATOM      6  C   UNL     1      -3.556   3.029   0.000  0.00  0.00    +0.068 C 
ATOM      7  C   UNL     1      -2.407   3.993   0.000  0.00  0.00    +0.136 C 
ATOM      8  N   UNL     1      -2.667   5.471   0.000  0.00  0.00    +0.220 N 
ATOM      9  O   UNL     1      -2.667   6.971   0.000  0.00  0.00    -0.775 OA
ATOM     10  C   UNL     1      -1.258   5.984   0.000  0.00  0.00    +0.135 C 
ATOM     11  C   UNL     1       0.152   5.470   0.000  0.00  0.00    +0.088 C 
ATOM     12  C   UNL     1       0.902   4.171   0.000  0.00  0.00    -0.013 A 
ATOM     13  C   UNL     1       0.641   2.694   0.000  0.00  0.00    +0.042 A 
ATOM     14  N   UNL     1       1.966   1.990   0.000  0.00  0.00    -0.357 N 
ATOM     15  H   UNL     1       2.174   0.504   0.000  0.00  0.00    +0.166 HD
ATOM     16  C   UNL     1       3.045   3.032   0.000  0.00  0.00    +0.047 A 
ATOM     17  C   UNL     1       4.541   2.927   0.000  0.00  0.00    +0.026 A 
ATOM     18  C   UNL     1       5.380   4.171   0.000  0.00  0.00    +0.002 A 
ATOM     19  C   UNL     1       4.722   5.519   0.000  0.00  0.00    +0.001 A 
ATOM     20  C   UNL     1       3.226   5.623   0.000  0.00  0.00    +0.010 A 
ATOM     21  C   UNL     1      -0.508   1.730   0.000  0.00  0.00    +0.136 C 
ATOM     60  C   UNL     1       2.387   4.380   0.000  0.00  0.00    +0.003 A 
ATOM     61  C   UNL     1      -2.008   1.730   0.000  0.00  0.00    +0.040 C 
ATOM     62  C   UNL     1      -4.077   5.984   0.000  0.00  0.00    +0.168 C 
BRANCH   3   2
ATOM      1  C   UNL     1      -7.667   5.908   0.000  0.00  0.00    +0.007 C 
ATOM      2  C   UNL     1      -6.190   6.169   0.000  0.00  0.00    +0.040 C 
ENDBRANCH   3   2
BRANCH  21  22
ATOM     22  C   UNL     1       1.184   0.617   0.000  0.00  0.00    +0.323 C 
ATOM     25  O   UNL     1       2.524   1.290   0.000  0.00  0.00    -0.249 OA
BRANCH  22  23
ATOM     23  O   UNL     1       1.358  -0.873   0.000  0.00  0.00    -0.467 OA
ATOM     24  C   UNL     1       2.735  -1.467   0.000  0.00  0.00    +0.280 C 
ENDBRANCH  22  23
ENDBRANCH  21  22
ENDBRANCH  26  21
BRANCH  27  28
ATOM     28  O   UNL     1      -3.260   1.459   0.000  0.00  0.00    -0.495 OA
ATOM     29  C   UNL     1      -4.757   1.372   0.000  0.00  0.00    +0.277 C 
ENDBRANCH  27  28
BRANCH  34  35
ATOM     35  O   UNL     1      -2.659  -6.111   0.000  0.00  0.00    -0.373 OA
ATOM     36  H   UNL     1      -3.424  -7.402   0.000  0.00  0.00    +0.211 HD
ENDBRANCH  34  35
BRANCH  34  37
ATOM     37  C   UNL     1      -1.436  -7.603   0.000  0.00  0.00    +0.345 C 
ATOM     40  O   UNL     1      -0.299  -8.580   0.000  0.00  0.00    -0.247 OA
BRANCH  37  38
ATOM     38  O   UNL     1      -3.347  -8.273   0.000  0.00  0.00    -0.466 OA
ATOM     39  C   UNL     1      -3.625  -9.747   0.000  0.00  0.00    +0.280 C 
ENDBRANCH  37  38
ENDBRANCH  34  37
BRANCH  46  53
ATOM     53  C   UNL     1       1.648  -7.188   0.000  0.00  0.00    +0.013 C 
ATOM     54  C   UNL     1       3.052  -7.717   0.000  0.00  0.00    +0.005 C 
ENDBRANCH  46  53
BRANCH  41  42
ATOM     42  O   UNL     1       0.488  -8.138   0.000  0.00  0.00    -0.457 OA
BRANCH  42  43
ATOM     43  C   UNL     1       1.891  -8.668   0.000  0.00  0.00    +0.304 C 
ATOM     44  O   UNL     1       3.052  -7.717   0.000  0.00  0.00    -0.251 OA
ATOM     45  C   UNL     1       2.135 -10.148   0.000  0.00  0.00    +0.136 C 
ENDBRANCH  42  43
ENDBRANCH  41  42
TORSDOF 11