REMARK  Name = 285166
REMARK  1 active torsions:
REMARK  status: ('A' for Active; 'I' for Inactive)
REMARK    1  A    between atoms: C_7  and  O_8
REMARK                            x       y       z     vdW  Elec       q    Type
REMARK                         _______ _______ _______ _____ _____    ______ ____
ROOT
ATOM      1  C   UNL     1      -6.506  -1.500   0.000  0.00  0.00    +0.020 A 
ATOM      2  C   UNL     1      -5.207  -0.750   0.000  0.00  0.00    +0.011 A 
ATOM      3  C   UNL     1      -3.908  -1.500   0.000  0.00  0.00    +0.004 A 
ATOM      4  C   UNL     1      -2.608  -0.750   0.000  0.00  0.00    +0.010 A 
ATOM      5  C   UNL     1      -1.310  -1.500   0.000  0.00  0.00    +0.004 A 
ATOM      6  C   UNL     1      -1.310  -3.000   0.000  0.00  0.00    +0.047 A 
ATOM      7  C   UNL     1      -2.608  -3.750   0.000  0.00  0.00    +0.143 A 
ATOM     10  C   UNL     1      -3.908  -3.000   0.000  0.00  0.00    +0.112 A 
ATOM     11  N   UNL     1      -5.207  -3.750   0.000  0.00  0.00    -0.251 NA
ATOM     12  C   UNL     1      -6.506  -3.000   0.000  0.00  0.00    +0.111 A 
ENDROOT
BRANCH   7   8
ATOM      8  O   UNL     1      -2.608  -5.250   0.000  0.00  0.00    -0.505 OA
ATOM      9  H   UNL     1      -3.420  -5.718   0.000  0.00  0.00    +0.292 HD
ENDBRANCH   7   8
TORSDOF 1