REMARK  Name = 373853
REMARK  1 active torsions:
REMARK  status: ('A' for Active; 'I' for Inactive)
REMARK    1  A    between atoms: N_8  and  C_14
REMARK                            x       y       z     vdW  Elec       q    Type
REMARK                         _______ _______ _______ _____ _____    ______ ____
ROOT
ATOM      1  C   UNL     1       1.400   4.500   0.000  0.00  0.00    +0.002 A 
ATOM      2  C   UNL     1       1.400   3.000   0.000  0.00  0.00    +0.002 A 
ATOM      3  C   UNL     1       2.699   2.250   0.000  0.00  0.00    +0.025 A 
ATOM      4  C   UNL     1       3.998   3.000   0.000  0.00  0.00    +0.063 A 
ATOM      5  N   UNL     1       5.297   2.250   0.000  0.00  0.00    -0.276 N 
ATOM      6  C   UNL     1       5.297   0.750   0.000  0.00  0.00    +0.138 C 
ATOM      7  C   UNL     1       6.596   3.000   0.000  0.00  0.00    +0.215 C 
ATOM      8 CL   UNL     1       7.895   2.250   0.000  0.00  0.00    -0.044 Cl
ATOM      9  N   UNL     1       6.596   4.500   0.000  0.00  0.00    -0.100 NA
ATOM     10  S   UNL     1       5.297   5.250   0.000  0.00  0.00    +0.103 S 
ATOM     11  O   UNL     1       6.261   6.399   0.000  0.00  0.00    -0.146 OA
ATOM     12  O   UNL     1       4.333   6.399   0.000  0.00  0.00    -0.146 OA
ATOM     13  C   UNL     1       3.998   4.500   0.000  0.00  0.00    +0.134 A 
ATOM     14  C   UNL     1       2.699   5.250   0.000  0.00  0.00    +0.031 A 
ENDROOT
TORSDOF 0