REMARK  Name = 157930
REMARK  6 active torsions:
REMARK  status: ('A' for Active; 'I' for Inactive)
REMARK    1  A    between atoms: S_2  and  C_8
REMARK    2  A    between atoms: S_2  and  C_10
REMARK    3  A    between atoms: S_2  and  C_17
REMARK    4  A    between atoms: C_3  and  C_22
REMARK    5  A    between atoms: C_12  and  C_23
REMARK    6  A    between atoms: C_19  and  C_21
REMARK                            x       y       z     vdW  Elec       q    Type
REMARK                         _______ _______ _______ _____ _____    ______ ____
ROOT
ATOM      1  S   UNL     1     -12.180   0.166   0.000  0.00  0.00    +0.101 S 
ENDROOT
BRANCH   1   2
ATOM      2  C   UNL     1     -13.479  -0.584   0.000  0.00  0.00    +0.168 A 
ATOM      3  C   UNL     1     -13.479  -2.084   0.000  0.00  0.00    +0.061 A 
ATOM      4  C   UNL     1     -14.778  -2.834   0.000  0.00  0.00    +0.008 A 
ATOM      5  C   UNL     1     -16.077  -2.084   0.000  0.00  0.00    -0.050 A 
ATOM      6  C   UNL     1     -17.376  -2.834   0.000  0.00  0.00    +0.044 C 
ATOM      7  C   UNL     1     -16.077  -0.584   0.000  0.00  0.00    +0.008 A 
ATOM      8  C   UNL     1     -14.778   0.166   0.000  0.00  0.00    +0.061 A 
ENDBRANCH   1   2
BRANCH   1   9
ATOM      9  C   UNL     1     -10.881  -0.584   0.000  0.00  0.00    +0.168 A 
ATOM     10  C   UNL     1     -10.881  -2.084   0.000  0.00  0.00    +0.061 A 
ATOM     11  C   UNL     1      -9.582  -2.834   0.000  0.00  0.00    +0.008 A 
ATOM     12  C   UNL     1      -8.283  -2.084   0.000  0.00  0.00    -0.050 A 
ATOM     13  C   UNL     1      -6.984  -2.834   0.000  0.00  0.00    +0.044 C 
ATOM     14  C   UNL     1      -8.283  -0.584   0.000  0.00  0.00    +0.008 A 
ATOM     15  C   UNL     1      -9.582   0.166   0.000  0.00  0.00    +0.061 A 
ENDBRANCH   1   9
BRANCH   1  16
ATOM     16  C   UNL     1     -12.180   1.666   0.000  0.00  0.00    +0.168 A 
ATOM     17  C   UNL     1     -13.479   2.416   0.000  0.00  0.00    +0.061 A 
ATOM     18  C   UNL     1     -13.479   3.916   0.000  0.00  0.00    +0.008 A 
ATOM     19  C   UNL     1     -12.180   4.666   0.000  0.00  0.00    -0.050 A 
ATOM     20  C   UNL     1     -12.180   6.166   0.000  0.00  0.00    +0.044 C 
ATOM     21  C   UNL     1     -10.881   3.916   0.000  0.00  0.00    +0.008 A 
ATOM     22  C   UNL     1     -10.881   2.416   0.000  0.00  0.00    +0.061 A 
ENDBRANCH   1  16
TORSDOF 3