REMARK  Name = 337766
REMARK  4 active torsions:
REMARK  status: ('A' for Active; 'I' for Inactive)
REMARK    1  A    between atoms: C_7  and  C_29
REMARK    2  A    between atoms: C_8  and  C_30
REMARK    3  A    between atoms: N_11  and  N_32
REMARK    4  A    between atoms: N_12  and  N_31
REMARK                            x       y       z     vdW  Elec       q    Type
REMARK                         _______ _______ _______ _____ _____    ______ ____
ROOT
ATOM      1 CL   UNL     1      12.648  -1.916   0.000  0.00  0.00    -0.145 Cl
ATOM      2  H   UNL     1      13.978  -1.916   0.000  0.00  0.00    +0.145 HD
ENDROOT
TORSDOF 0