REMARK  Name = 371846
REMARK  5 active torsions:
REMARK  status: ('A' for Active; 'I' for Inactive)
REMARK    1  A    between atoms: C_1  and  O_29
REMARK    2  A    between atoms: C_14  and  C_16
REMARK    3  A    between atoms: C_28  and  O_31
REMARK    4  A    between atoms: O_29  and  C_30
REMARK    5  A    between atoms: O_31  and  C_32
REMARK                            x       y       z     vdW  Elec       q    Type
REMARK                         _______ _______ _______ _____ _____    ______ ____
ROOT
ATOM      1  C   UNL     1      -1.016   5.859   0.000  0.00  0.00    +0.120 A 
ATOM      4  C   UNL     1      -0.266   4.560   0.000  0.00  0.00    +0.046 A 
ATOM      5  C   UNL     1       1.234   4.560   0.000  0.00  0.00    +0.014 A 
ATOM      6  C   UNL     1       1.984   5.859   0.000  0.00  0.00    +0.003 A 
ATOM      7  C   UNL     1       3.484   5.859   0.000  0.00  0.00    +0.070 A 
ATOM      8  N   UNL     1       4.487   4.744   0.000  0.00  0.00    -0.276 N 
ATOM      9  H   UNL     1       4.175   3.277   0.000  0.00  0.00    +0.189 HD
ATOM     10  N   UNL     1       5.858   5.354   0.000  0.00  0.00    -0.171 NA
ATOM     11  C   UNL     1       5.701   6.846   0.000  0.00  0.00    +0.116 A 
ATOM     28  C   UNL     1       4.234   7.158   0.000  0.00  0.00    +0.007 A 
ATOM     29  C   UNL     1       3.484   8.457   0.000  0.00  0.00    +0.044 C 
ATOM     30  C   UNL     1       1.984   8.457   0.000  0.00  0.00    +0.040 C 
ATOM     31  C   UNL     1       1.234   7.158   0.000  0.00  0.00    -0.034 A 
ATOM     32  C   UNL     1      -0.266   7.158   0.000  0.00  0.00    +0.050 A 
ENDROOT
BRANCH  11  12
ATOM     12  C   UNL     1       6.816   7.849   0.000  0.00  0.00    +0.116 A 
ATOM     13  C   UNL     1       6.659   9.341   0.000  0.00  0.00    +0.007 A 
ATOM     14  C   UNL     1       8.029   9.951   0.000  0.00  0.00    +0.070 A 
ATOM     15  C   UNL     1       8.186  11.443   0.000  0.00  0.00    +0.003 A 
ATOM     16  C   UNL     1       9.556  12.053   0.000  0.00  0.00    +0.014 A 
ATOM     17  C   UNL     1       9.713  13.545   0.000  0.00  0.00    +0.046 A 
ATOM     18  C   UNL     1       8.499  14.427   0.000  0.00  0.00    +0.120 A 
ATOM     21  C   UNL     1       7.129  13.817   0.000  0.00  0.00    +0.050 A 
ATOM     22  C   UNL     1       6.972  12.325   0.000  0.00  0.00    -0.034 A 
ATOM     23  C   UNL     1       5.602  11.715   0.000  0.00  0.00    +0.040 C 
ATOM     24  N   UNL     1       9.033   8.837   0.000  0.00  0.00    -0.276 N 
ATOM     25  H   UNL     1      10.525   8.993   0.000  0.00  0.00    +0.189 HD
ATOM     26  C   UNL     1       5.445  10.223   0.000  0.00  0.00    +0.044 C 
ATOM     27  N   UNL     1       8.283   7.538   0.000  0.00  0.00    -0.171 NA
BRANCH  18  19
ATOM     19  O   UNL     1       8.656  15.919   0.000  0.00  0.00    -0.495 OA
ATOM     20  C   UNL     1       7.443  16.800   0.000  0.00  0.00    +0.277 C 
ENDBRANCH  18  19
ENDBRANCH  11  12
BRANCH   1   2
ATOM      2  O   UNL     1      -2.516   5.859   0.000  0.00  0.00    -0.495 OA
ATOM      3  C   UNL     1      -3.266   7.158   0.000  0.00  0.00    +0.277 C 
ENDBRANCH   1   2
TORSDOF 3