REMARK  Name = 169774
REMARK  13 active torsions:
REMARK  status: ('A' for Active; 'I' for Inactive)
REMARK    1  A    between atoms: N_4  and  C_38
REMARK    2  A    between atoms: C_15  and  O_42
REMARK    3  A    between atoms: C_16  and  C_35
REMARK    4  A    between atoms: C_30  and  N_37
REMARK    5  A    between atoms: C_30  and  C_39
REMARK    6  A    between atoms: C_33  and  C_43
REMARK    7  A    between atoms: C_39  and  C_40
REMARK    8  A    between atoms: C_39  and  C_41
REMARK    9  A    between atoms: C_43  and  C_44
REMARK   10  A    between atoms: C_44  and  C_45
REMARK   11  A    between atoms: C_44  and  C_46
REMARK   12  A    between atoms: C_47  and  S_48
REMARK   13  A    between atoms: S_48  and  O_51
REMARK                            x       y       z     vdW  Elec       q    Type
REMARK                         _______ _______ _______ _____ _____    ______ ____
ROOT
ATOM      1  C   UNL     1       3.467  13.145   0.000  0.00  0.00    +0.228 C 
ATOM      2  S   UNL     1       3.870  14.589   0.000  0.00  0.00    +0.077 S 
ATOM      5  O   UNL     1       4.274  16.034   0.000  0.00  0.00    -0.148 OA
ATOM      6  O   UNL     1       5.315  14.186   0.000  0.00  0.00    -0.148 OA
ENDROOT
BRANCH   2   3
ATOM      3  O   UNL     1       2.426  14.993   0.000  0.00  0.00    -0.254 OA
ATOM      4  H   UNL     1       2.184  15.932   0.000  0.00  0.00    +0.244 HD
ENDBRANCH   2   3
TORSDOF 1