REMARK  Name = 32065
REMARK  1 active torsions:
REMARK  status: ('A' for Active; 'I' for Inactive)
REMARK    1  A    between atoms: N_3  and  O_4
REMARK                            x       y       z     vdW  Elec       q    Type
REMARK                         _______ _______ _______ _____ _____    ______ ____
ROOT
ATOM      1  C   UNL     1       2.049   1.500   0.000  0.00  0.00    +0.320 C 
ATOM      2  N   UNL     1       0.750   0.750   0.000  0.00  0.00    -0.312 N 
ATOM      3  H   UNL     1       0.750  -0.234   0.000  0.00  0.00    +0.147 HD
ATOM      4  H   UNL     1      -0.103   1.242   0.000  0.00  0.00    +0.147 HD
ATOM      5  N   UNL     1       3.348   0.750   0.000  0.00  0.00    -0.181 N 
ATOM      6  H   UNL     1       3.348  -0.234   0.000  0.00  0.00    +0.184 HD
ATOM      9  O   UNL     1       2.049   3.000   0.000  0.00  0.00    -0.251 OA
ENDROOT
BRANCH   5   7
ATOM      7  O   UNL     1       4.647   1.500   0.000  0.00  0.00    -0.294 OA
ATOM      8  H   UNL     1       5.487   1.015   0.000  0.00  0.00    +0.241 HD
ENDBRANCH   5   7
TORSDOF 1