REMARK  Name = 321803
REMARK  4 active torsions:
REMARK  status: ('A' for Active; 'I' for Inactive)
REMARK    1  A    between atoms: C_8  and  C_27
REMARK    2  A    between atoms: C_17  and  O_22
REMARK    3  A    between atoms: C_20  and  N_24
REMARK    4  A    between atoms: O_22  and  C_23
REMARK                            x       y       z     vdW  Elec       q    Type
REMARK                         _______ _______ _______ _____ _____    ______ ____
ROOT
ATOM      1  C   UNL     1      -2.714  -6.077   0.000  0.00  0.00    +0.023 C 
ATOM      2  C   UNL     1      -3.718  -7.191   0.000  0.00  0.00    -0.034 A 
ATOM      3  C   UNL     1      -3.254  -8.618   0.000  0.00  0.00    +0.037 A 
ATOM      4  C   UNL     1      -1.787  -8.930   0.000  0.00  0.00    +0.043 C 
ATOM      5  C   UNL     1      -0.783  -7.815   0.000  0.00  0.00    +0.009 C 
ATOM      6  C   UNL     1      -4.258  -9.733   0.000  0.00  0.00    +0.318 A 
ATOM     10  C   UNL     1      -5.725  -9.421   0.000  0.00  0.00    +0.198 A 
ATOM     13  C   UNL     1      -6.189  -7.994   0.000  0.00  0.00    +0.053 A 
ATOM     14  C   UNL     1      -5.185  -6.880   0.000  0.00  0.00    +0.008 A 
ATOM     15  C   UNL     1      -1.247  -6.388   0.000  0.00  0.00    +0.001 C 
ATOM     16  C   UNL     1      -0.243  -5.274   0.000  0.00  0.00    +0.006 C 
ATOM     17  C   UNL     1       1.257  -5.274   0.000  0.00  0.00    +0.012 C 
ATOM     18  C   UNL     1       1.720  -3.847   0.000  0.00  0.00    +0.075 C 
ATOM     19  C   UNL     1       0.507  -2.966   0.000  0.00  0.00    +0.139 C 
ATOM     20  O   UNL     1       0.507  -1.466   0.000  0.00  0.00    -0.297 OA
ATOM     21  C   UNL     1      -0.707  -3.847   0.000  0.00  0.00    +0.029 C 
ATOM     22  C   UNL     1      -1.019  -2.380   0.000  0.00  0.00    +0.019 C 
ATOM     23  C   UNL     1      -2.174  -3.535   0.000  0.00  0.00    +0.015 C 
ATOM     24  C   UNL     1      -3.178  -4.650   0.000  0.00  0.00    +0.009 C 
ENDROOT
BRANCH   6   7
ATOM      7  N   UNL     1      -3.795 -11.159   0.000  0.00  0.00    +0.084 N 
ATOM      8  O   UNL     1      -2.327 -11.471   0.000  0.00  0.00    +0.042 OA
ATOM      9  O   UNL     1      -4.798 -12.274   0.000  0.00  0.00    -0.576 OA
ENDBRANCH   6   7
BRANCH  10  11
ATOM     11  O   UNL     1      -6.729 -10.536   0.000  0.00  0.00    -0.489 OA
ATOM     12  C   UNL     1      -8.196 -10.224   0.000  0.00  0.00    +0.277 C 
ENDBRANCH  10  11
TORSDOF 2