REMARK  Name = 191392
REMARK  4 active torsions:
REMARK  status: ('A' for Active; 'I' for Inactive)
REMARK    1  A    between atoms: C_3  and  C_19
REMARK    2  A    between atoms: C_10  and  N_15
REMARK    3  A    between atoms: C_11  and  C_14
REMARK    4  A    between atoms: C_16  and  C_18
REMARK                            x       y       z     vdW  Elec       q    Type
REMARK                         _______ _______ _______ _____ _____    ______ ____
ROOT
ATOM      7  N   UNL     1       2.049  -5.250   0.000  0.00  0.00    -0.282 N 
ATOM      8  H   UNL     1       1.196  -4.758   0.000  0.00  0.00    +0.155 HD
ATOM      9  C   UNL     1       2.049  -6.750   0.000  0.00  0.00    +0.241 C 
ATOM     18  O   UNL     1       0.750  -7.500   0.000  0.00  0.00    -0.270 OA
ENDROOT
BRANCH   7   6
ATOM      1 CL   UNL     1       4.647  -0.750   0.000  0.00  0.00    -0.083 Cl
ATOM      2  C   UNL     1       4.647  -2.250   0.000  0.00  0.00    +0.046 A 
ATOM      3  C   UNL     1       5.946  -3.000   0.000  0.00  0.00    +0.020 A 
ATOM      4  C   UNL     1       5.946  -4.500   0.000  0.00  0.00    +0.003 A 
ATOM      5  C   UNL     1       4.647  -5.250   0.000  0.00  0.00    +0.023 A 
ATOM      6  C   UNL     1       3.348  -4.500   0.000  0.00  0.00    +0.038 A 
ATOM     19  C   UNL     1       3.348  -3.000   0.000  0.00  0.00    -0.011 A 
ATOM     20  C   UNL     1       2.049  -2.250   0.000  0.00  0.00    +0.047 C 
ENDBRANCH   7   6
BRANCH   9  10
ATOM     10  C   UNL     1       3.348  -7.500   0.000  0.00  0.00    +0.068 C 
ATOM     11  C   UNL     1       3.348  -9.000   0.000  0.00  0.00    +0.013 C 
BRANCH  11  12
ATOM     12  C   UNL     1       4.647  -9.750   0.000  0.00  0.00    -0.025 A 
ATOM     13  C   UNL     1       4.647 -11.250   0.000  0.00  0.00    +0.008 A 
ATOM     14  C   UNL     1       5.946 -12.000   0.000  0.00  0.00    +0.001 A 
ATOM     15  C   UNL     1       7.245 -11.250   0.000  0.00  0.00    +0.000 A 
ATOM     16  C   UNL     1       7.245  -9.750   0.000  0.00  0.00    +0.001 A 
ATOM     17  C   UNL     1       5.946  -9.000   0.000  0.00  0.00    +0.008 A 
ENDBRANCH  11  12
ENDBRANCH   9  10
TORSDOF 3