REMARK  Name = 375575
REMARK  5 active torsions:
REMARK  status: ('A' for Active; 'I' for Inactive)
REMARK    1  A    between atoms: C_1  and  N_3
REMARK    2  A    between atoms: C_10  and  C_14
REMARK    3  A    between atoms: C_11  and  O_15
REMARK    4  A    between atoms: C_12  and  O_16
REMARK    5  A    between atoms: O_13  and  C_14
REMARK                            x       y       z     vdW  Elec       q    Type
REMARK                         _______ _______ _______ _____ _____    ______ ____
ROOT
ATOM      1  C   UNL     1       3.191   5.757   0.000  0.00  0.00    +0.146 C 
ATOM      2  C   UNL     1       3.034   4.265   0.000  0.00  0.00    +0.174 C 
ATOM      5  C   UNL     1       1.567   3.953   0.000  0.00  0.00    +0.173 C 
ATOM      8  C   UNL     1       0.817   5.252   0.000  0.00  0.00    -0.016 C 
ATOM     22  C   UNL     1       1.821   6.367   0.000  0.00  0.00    +0.005 C 
ENDROOT
BRANCH   1  12
ATOM     12  N   UNL     1       4.490   6.507   0.000  0.00  0.00    -0.290 N 
ATOM     13  C   UNL     1       5.789   5.757   0.000  0.00  0.00    +0.095 A 
ATOM     14  C   UNL     1       7.088   6.507   0.000  0.00  0.00    +0.061 A 
ATOM     15  C   UNL     1       7.088   8.007   0.000  0.00  0.00    +0.123 A 
ATOM     16  N   UNL     1       8.387   8.757   0.000  0.00  0.00    -0.343 N 
ATOM     17  H   UNL     1       8.387   9.741   0.000  0.00  0.00    +0.144 HD
ATOM     18  H   UNL     1       9.240   8.265   0.000  0.00  0.00    +0.144 HD
ATOM     19  N   UNL     1       5.789   8.757   0.000  0.00  0.00    -0.178 NA
ATOM     20  C   UNL     1       4.490   8.007   0.000  0.00  0.00    +0.351 A 
ATOM     21  O   UNL     1       3.191   8.757   0.000  0.00  0.00    -0.244 OA
ENDBRANCH   1  12
BRANCH   2   3
ATOM      3  O   UNL     1       4.149   3.261   0.000  0.00  0.00    -0.387 OA
ATOM      4  H   UNL     1       3.947   2.313   0.000  0.00  0.00    +0.210 HD
ENDBRANCH   2   3
BRANCH   5   6
ATOM      6  O   UNL     1       0.957   2.583   0.000  0.00  0.00    -0.385 OA
ATOM      7  H   UNL     1      -0.008   2.482   0.000  0.00  0.00    +0.210 HD
ENDBRANCH   5   6
BRANCH   8   9
ATOM      9  C   UNL     1      -0.675   5.409   0.000  0.00  0.00    +0.189 C 
BRANCH   9  10
ATOM     10  O   UNL     1      -1.556   4.196   0.000  0.00  0.00    -0.391 OA
ATOM     11  H   UNL     1      -2.521   4.297   0.000  0.00  0.00    +0.210 HD
ENDBRANCH   9  10
ENDBRANCH   8   9
TORSDOF 5