REMARK  Name = 363744
REMARK  9 active torsions:
REMARK  status: ('A' for Active; 'I' for Inactive)
REMARK    1  A    between atoms: C_1  and  C_27
REMARK    2  A    between atoms: C_2  and  C_27
REMARK    3  A    between atoms: C_3  and  N_30
REMARK    4  A    between atoms: C_19  and  C_28
REMARK    5  A    between atoms: C_19  and  S_36
REMARK    6  A    between atoms: C_20  and  C_23
REMARK    7  A    between atoms: C_21  and  C_24
REMARK    8  A    between atoms: N_29  and  O_31
REMARK    9  A    between atoms: O_32  and  S_36
REMARK                            x       y       z     vdW  Elec       q    Type
REMARK                         _______ _______ _______ _____ _____    ______ ____
ROOT
ATOM      1  C   UNL     1      15.389   1.500   0.000  0.00  0.00    +0.106 C 
ATOM      2  N   UNL     1      15.389   3.000   0.000  0.00  0.00    -0.291 NA
ATOM      3  C   UNL     1      14.090   3.750   0.000  0.00  0.00    +0.093 C 
ATOM     10  C   UNL     1      14.090   5.250   0.000  0.00  0.00    +0.078 C 
ATOM     11  C   UNL     1      15.389   6.000   0.000  0.00  0.00    +0.061 C 
ATOM     12  N   UNL     1      15.389   7.500   0.000  0.00  0.00    -0.096 NA
ATOM     15  C   UNL     1      16.688   5.250   0.000  0.00  0.00    +0.078 C 
ATOM     16  C   UNL     1      16.688   3.750   0.000  0.00  0.00    +0.093 C 
ENDROOT
BRANCH   3   4
ATOM      4  C   UNL     1      12.791   3.000   0.000  0.00  0.00    -0.030 A 
ATOM      5  C   UNL     1      11.492   3.750   0.000  0.00  0.00    +0.005 A 
ATOM      6  C   UNL     1      10.193   3.000   0.000  0.00  0.00    +0.000 A 
ATOM      7  C   UNL     1      10.193   1.500   0.000  0.00  0.00    +0.000 A 
ATOM      8  C   UNL     1      11.492   0.750   0.000  0.00  0.00    +0.000 A 
ATOM      9  C   UNL     1      12.791   1.500   0.000  0.00  0.00    +0.005 A 
ENDBRANCH   3   4
BRANCH  16  17
ATOM     17  C   UNL     1      17.987   3.000   0.000  0.00  0.00    -0.030 A 
ATOM     18  C   UNL     1      17.987   1.500   0.000  0.00  0.00    +0.005 A 
ATOM     19  C   UNL     1      19.286   0.750   0.000  0.00  0.00    +0.000 A 
ATOM     20  C   UNL     1      20.585   1.500   0.000  0.00  0.00    +0.000 A 
ATOM     21  C   UNL     1      20.585   3.000   0.000  0.00  0.00    +0.000 A 
ATOM     22  C   UNL     1      19.286   3.750   0.000  0.00  0.00    +0.005 A 
ENDBRANCH  16  17
BRANCH  12  13
ATOM     13  O   UNL     1      14.090   8.250   0.000  0.00  0.00    -0.409 OA
ATOM     14  H   UNL     1      14.090   9.750   0.000  0.00  0.00    +0.328 HD
ENDBRANCH  12  13
TORSDOF 3