REMARK  Name = 264880
REMARK  5 active torsions:
REMARK  status: ('A' for Active; 'I' for Inactive)
REMARK    1  A    between atoms: N_3  and  C1*_7
REMARK    2  A    between atoms: C2*_8  and  O2*_16
REMARK    3  A    between atoms: C3*_9  and  O3*_13
REMARK    4  A    between atoms: C4*_10  and  C5*_14
REMARK    5  A    between atoms: O5*_12  and  C5*_14
REMARK                            x       y       z     vdW  Elec       q    Type
REMARK                         _______ _______ _______ _____ _____    ______ ____
ROOT
ATOM      1 CL   UNL     1      -7.488   6.196   0.000  0.00  0.00    -0.145 Cl
ATOM      2  H   UNL     1      -6.158   6.196   0.000  0.00  0.00    +0.145 HD
ENDROOT
TORSDOF 0