REMARK  Name = 181486
REMARK  5 active torsions:
REMARK  status: ('A' for Active; 'I' for Inactive)
REMARK    1  A    between atoms: N_6  and  C_43
REMARK    2  A    between atoms: C_9  and  O_39
REMARK    3  A    between atoms: C_37  and  O_41
REMARK    4  A    between atoms: O_39  and  C_40
REMARK    5  A    between atoms: O_41  and  C_42
REMARK                            x       y       z     vdW  Elec       q    Type
REMARK                         _______ _______ _______ _____ _____    ______ ____
ROOT
ATOM      1  H   UNL     1       6.861 -10.486   0.000  0.00  0.00    +0.123 HD
ATOM      2  N   UNL     1       5.396 -10.163   0.000  0.00  0.00    -0.309 NA
ATOM      3  C   UNL     1       5.923  -7.340   0.000  0.00  0.00    +0.089 C 
ATOM      4  C   UNL     1       6.712  -8.615   0.000  0.00  0.00    -0.023 A 
ATOM      5  C   UNL     1       7.505 -11.679   0.000  0.00  0.00    -0.038 A 
ATOM      6  C   UNL     1       6.245 -12.493   0.000  0.00  0.00    +0.050 C 
ATOM      7  C   UNL     1       8.518 -12.785   0.000  0.00  0.00    +0.054 A 
ATOM      8  C   UNL     1       9.758 -11.940   0.000  0.00  0.00    +0.171 A 
ATOM      9  C   UNL     1       9.233 -10.176   0.000  0.00  0.00    +0.171 A 
ATOM     10  O   UNL     1      10.727 -10.314   0.000  0.00  0.00    -0.448 OA
ATOM     11  C   UNL     1      12.192  -9.993   0.000  0.00  0.00    +0.179 A 
ATOM     12  C   UNL     1      12.192 -11.493   0.000  0.00  0.00    +0.212 A 
ATOM     13  C   UNL     1      13.491 -12.243   0.000  0.00  0.00    +0.166 A 
ATOM     16  C   UNL     1      14.790 -11.493   0.000  0.00  0.00    +0.053 A 
ATOM     17  C   UNL     1      14.790  -9.993   0.000  0.00  0.00    -0.034 A 
ATOM     18  C   UNL     1      16.089  -9.243   0.000  0.00  0.00    +0.051 C 
ATOM     19  C   UNL     1      16.089  -7.743   0.000  0.00  0.00    +0.089 C 
ATOM     20  N   UNL     1      14.790  -6.993   0.000  0.00  0.00    -0.298 NA
ATOM     21  C   UNL     1      15.050  -5.516   0.000  0.00  0.00    +0.105 C 
ATOM     22  C   UNL     1      13.491  -7.743   0.000  0.00  0.00    +0.095 C 
ATOM     23  C   UNL     1      14.802  -3.254   0.000  0.00  0.00    +0.059 C 
ATOM     24  C   UNL     1      13.936  -2.030   0.000  0.00  0.00    -0.045 A 
ATOM     25  C   UNL     1      13.226  -3.352   0.000  0.00  0.00    +0.007 A 
ATOM     26  C   UNL     1      11.811  -2.853   0.000  0.00  0.00    +0.046 A 
ATOM     27  C   UNL     1       9.825  -0.582   0.000  0.00  0.00    +0.129 A 
ATOM     28  C   UNL     1      11.324  -0.628   0.000  0.00  0.00    +0.046 A 
ATOM     29  O   UNL     1       8.382  -0.992   0.000  0.00  0.00    -0.452 OA
ATOM     30  C   UNL     1       7.131  -1.821   0.000  0.00  0.00    +0.170 A 
ATOM     31  C   UNL     1       7.131  -3.532   0.000  0.00  0.00    +0.053 A 
ATOM     32  C   UNL     1       5.649  -4.388   0.000  0.00  0.00    -0.042 A 
ATOM     33  C   UNL     1       4.350  -3.638   0.000  0.00  0.00    +0.007 A 
ATOM     34  C   UNL     1       4.350  -2.138   0.000  0.00  0.00    +0.050 A 
ATOM     35  C   UNL     1       5.649  -1.388   0.000  0.00  0.00    +0.162 A 
ATOM     38  C   UNL     1      12.739  -1.126   0.000  0.00  0.00    +0.007 A 
ATOM     39  C   UNL     1      13.491  -9.243   0.000  0.00  0.00    +0.019 A 
ATOM     40  O   UNL     1      11.128 -12.551   0.000  0.00  0.00    -0.445 OA
ATOM     41  C   UNL     1       7.851  -9.591   0.000  0.00  0.00    +0.055 A 
ATOM     42  C   UNL     1       5.557  -5.885   0.000  0.00  0.00    +0.058 C 
ATOM     43  C   UNL     1       5.027 -11.617   0.000  0.00  0.00    +0.086 C 
ENDROOT
BRANCH  13  14
ATOM     14  O   UNL     1      13.491 -13.743   0.000  0.00  0.00    -0.491 OA
ATOM     15  C   UNL     1      12.192 -14.493   0.000  0.00  0.00    +0.277 C 
ENDBRANCH  13  14
BRANCH  35  36
ATOM     36  O   UNL     1       5.470   0.101   0.000  0.00  0.00    -0.491 OA
ATOM     37  C   UNL     1       4.090   0.691   0.000  0.00  0.00    +0.277 C 
ENDBRANCH  35  36
TORSDOF 2