REMARK  Name = 154754
REMARK  2 active torsions:
REMARK  status: ('A' for Active; 'I' for Inactive)
REMARK    1  A    between atoms: C_13  and  O_15
REMARK    2  A    between atoms: O_15  and  C_16
REMARK                            x       y       z     vdW  Elec       q    Type
REMARK                         _______ _______ _______ _____ _____    ______ ____
ROOT
ATOM      1 BR   UNL     1      -5.787 -10.249   0.000  0.00  0.00    -0.050 Br
ATOM      2  C   UNL     1      -5.176  -8.878   0.000  0.00  0.00    +0.020 A 
ATOM      3  C   UNL     1      -3.685  -8.722   0.000  0.00  0.00    +0.045 A 
ATOM      4  C   UNL     1      -3.075  -7.351   0.000  0.00  0.00    +0.092 A 
ATOM      5  C   UNL     1      -3.956  -6.138   0.000  0.00  0.00    +0.068 A 
ATOM      6  C   UNL     1      -5.448  -6.295   0.000  0.00  0.00    +0.029 A 
ATOM      7  N   UNL     1      -3.075  -4.924   0.000  0.00  0.00    -0.326 N 
ATOM      8  H   UNL     1      -3.538  -3.498   0.000  0.00  0.00    +0.169 HD
ATOM      9  C   UNL     1      -1.648  -5.388   0.000  0.00  0.00    +0.203 A 
ATOM     10  N   UNL     1      -0.434  -4.506   0.000  0.00  0.00    -0.221 N 
ATOM     11  H   UNL     1      -0.537  -3.527   0.000  0.00  0.00    +0.161 HD
ATOM     12  C   UNL     1       0.936  -5.116   0.000  0.00  0.00    +0.406 C 
ATOM     15  O   UNL     1       2.149  -4.234   0.000  0.00  0.00    -0.226 OA
ATOM     16  N   UNL     1      -1.648  -6.888   0.000  0.00  0.00    -0.214 NA
ATOM     17  C   UNL     1      -6.058  -7.665   0.000  0.00  0.00    +0.017 A 
ENDROOT
BRANCH  12  13
ATOM     13  O   UNL     1       1.093  -6.608   0.000  0.00  0.00    -0.453 OA
ATOM     14  C   UNL     1       2.463  -7.218   0.000  0.00  0.00    +0.282 C 
ENDBRANCH  12  13
TORSDOF 1