REMARK  Name = 349644
REMARK  7 active torsions:
REMARK  status: ('A' for Active; 'I' for Inactive)
REMARK    1  A    between atoms: N_6  and  C_31
REMARK    2  A    between atoms: C_15  and  C_26
REMARK    3  A    between atoms: C_19  and  O_24
REMARK    4  A    between atoms: C_22  and  C_28
REMARK    5  A    between atoms: C_23  and  C_29
REMARK    6  A    between atoms: O_24  and  C_25
REMARK    7  A    between atoms: O_27  and  C_28
REMARK                            x       y       z     vdW  Elec       q    Type
REMARK                         _______ _______ _______ _____ _____    ______ ____
ROOT
ATOM      1  O   UNL     1      -6.265  -5.649   0.000  0.00  0.00    -0.287 OA
ATOM      2  C   UNL     1      -6.265  -7.149   0.000  0.00  0.00    +0.191 C 
ATOM      3  C   UNL     1      -4.966  -7.899   0.000  0.00  0.00    +0.027 C 
ATOM      4  C   UNL     1      -3.667  -7.149   0.000  0.00  0.00    +0.112 C 
ATOM      5  C   UNL     1      -2.368  -7.899   0.000  0.00  0.00    +0.098 C 
ATOM      6  C   UNL     1      -1.069  -7.149   0.000  0.00  0.00    +0.083 C 
ATOM      7  C   UNL     1      -1.069  -5.649   0.000  0.00  0.00    +0.053 C 
ATOM      8  C   UNL     1       0.357  -5.185   0.000  0.00  0.00    +0.030 C 
ATOM      9  C   UNL     1       0.230  -9.399   0.000  0.00  0.00    +0.088 C 
ATOM     10  C   UNL     1      -1.069 -10.149   0.000  0.00  0.00    +0.178 C 
ATOM     13  C   UNL     1      -2.368  -4.899   0.000  0.00  0.00    +0.194 C 
ATOM     14  O   UNL     1      -2.680  -3.431   0.000  0.00  0.00    -0.360 OA
ATOM     15  C   UNL     1      -4.172  -3.275   0.000  0.00  0.00    +0.177 C 
ATOM     16  C   UNL     1      -4.782  -4.645   0.000  0.00  0.00    +0.115 C 
ATOM     17  N   UNL     1       0.230  -7.899   0.000  0.00  0.00    -0.295 NA
ATOM     18  C   UNL     1       1.529  -7.149   0.000  0.00  0.00    +0.105 C 
ATOM     19  N   UNL     1      -2.368  -9.399   0.000  0.00  0.00    -0.271 NA
ATOM     20  C   UNL     1      -3.667 -10.149   0.000  0.00  0.00    +0.118 C 
ATOM     24  N   UNL     1      -3.667  -5.649   0.000  0.00  0.00    -0.266 NA
ATOM     25  C   UNL     1      -4.966  -9.399   0.000  0.00  0.00    +0.031 C 
ATOM     26  C   UNL     1      -6.265 -10.149   0.000  0.00  0.00    +0.226 C 
ATOM     27  C   UNL     1      -7.564  -9.399   0.000  0.00  0.00    +0.173 C 
ATOM     30  O   UNL     1      -6.265 -11.649   0.000  0.00  0.00    -0.284 OA
ATOM     31  C   UNL     1      -7.564  -7.899   0.000  0.00  0.00    +0.042 C 
ATOM     32  C   UNL     1      -8.863  -7.149   0.000  0.00  0.00    +0.052 C 
ENDROOT
BRANCH  10  11
ATOM     11  C   UNL     1      -1.069 -11.649   0.000  0.00  0.00    +0.083 C 
ATOM     12  N   UNL     1      -1.069 -13.149   0.000  0.00  0.00    -0.195 NA
ENDBRANCH  10  11
BRANCH  27  28
ATOM     28  O   UNL     1      -8.863 -10.149   0.000  0.00  0.00    -0.491 OA
ATOM     29  C   UNL     1     -10.162  -9.399   0.000  0.00  0.00    +0.277 C 
ENDBRANCH  27  28
BRANCH  20  21
ATOM     21  C   UNL     1      -3.667 -11.649   0.000  0.00  0.00    +0.179 C 
BRANCH  21  22
ATOM     22  O   UNL     1      -4.966 -12.399   0.000  0.00  0.00    -0.393 OA
ATOM     23  H   UNL     1      -5.806 -11.914   0.000  0.00  0.00    +0.209 HD
ENDBRANCH  21  22
ENDBRANCH  20  21
TORSDOF 4