REMARK  Name = 4728
REMARK  0 active torsions:
REMARK  status: ('A' for Active; 'I' for Inactive)
REMARK                            x       y       z     vdW  Elec       q    Type
REMARK                         _______ _______ _______ _____ _____    ______ ____
ROOT
ATOM      1  N   UNL     1      -1.357  -0.978   0.000  0.00  0.00    -0.148 NA
ATOM      2  N   UNL     1       0.125  -1.209   0.000  0.00  0.00    -0.127 NA
ATOM      3  C   UNL     1       0.803   0.129   0.000  0.00  0.00    +0.179 A 
ATOM      4  N   UNL     1       2.284   0.367   0.000  0.00  0.00    -0.336 N 
ATOM      5  H   UNL     1       2.635   1.287   0.000  0.00  0.00    +0.144 HD
ATOM      6  H   UNL     1       2.905  -0.397   0.000  0.00  0.00    +0.144 HD
ATOM      7  S   UNL     1      -0.260   1.187   0.000  0.00  0.00    -0.039 S 
ATOM      8  C   UNL     1      -1.595   0.503   0.000  0.00  0.00    +0.183 A 
ENDROOT
TORSDOF 0