REMARK  Name = 268986
REMARK  5 active torsions:
REMARK  status: ('A' for Active; 'I' for Inactive)
REMARK    1  A    between atoms: N_2  and  C_23
REMARK    2  A    between atoms: C_5  and  N_25
REMARK    3  A    between atoms: C_12  and  N_22
REMARK    4  A    between atoms: C_15  and  C_16
REMARK    5  A    between atoms: C_23  and  C_24
REMARK                            x       y       z     vdW  Elec       q    Type
REMARK                         _______ _______ _______ _____ _____    ______ ____
ROOT
ATOM      1  N   UNL     1       0.725   7.352   0.000  0.00  0.00    -0.190 N 
ATOM      4  C   UNL     1       0.714   8.852   0.000  0.00  0.00    +0.218 A 
ATOM      5  C   UNL     1       2.007   9.612   0.000  0.00  0.00    +0.101 A 
ATOM      6  C   UNL     1       1.996  11.112   0.000  0.00  0.00    +0.031 A 
ATOM     10  C   UNL     1       0.692  11.852   0.000  0.00  0.00    +0.024 A 
ATOM     11  C   UNL     1      -0.602  11.093   0.000  0.00  0.00    +0.017 A 
ATOM     12  C   UNL     1      -0.591   9.593   0.000  0.00  0.00    +0.054 A 
ATOM     13  C   UNL     1      -1.884   8.834   0.000  0.00  0.00    +0.002 A 
ATOM     14  C   UNL     1      -3.189   9.574   0.000  0.00  0.00    +0.011 A 
ATOM     15  C   UNL     1      -4.482   8.815   0.000  0.00  0.00    +0.023 A 
ATOM     16  C   UNL     1      -4.471   7.315   0.000  0.00  0.00    +0.025 A 
ATOM     20  C   UNL     1      -3.167   6.574   0.000  0.00  0.00    +0.037 A 
ATOM     21  C   UNL     1      -1.873   7.333   0.000  0.00  0.00    +0.056 A 
ATOM     22  C   UNL     1      -0.569   6.593   0.000  0.00  0.00    +0.223 A 
ENDROOT
BRANCH  22  23
ATOM     23  C   UNL     1      -0.558   5.093   0.000  0.00  0.00    +0.047 A 
ATOM     24  C   UNL     1      -1.852   4.334   0.000  0.00  0.00    +0.014 A 
ATOM     25  C   UNL     1      -1.841   2.834   0.000  0.00  0.00    +0.001 A 
ATOM     26  C   UNL     1      -0.537   2.093   0.000  0.00  0.00    +0.000 A 
ATOM     27  C   UNL     1       0.757   2.852   0.000  0.00  0.00    +0.001 A 
ATOM     28  C   UNL     1       0.746   4.352   0.000  0.00  0.00    +0.014 A 
ENDBRANCH  22  23
BRANCH   6   7
ATOM      7  N   UNL     1       3.290  11.871   0.000  0.00  0.00    -0.358 N 
ATOM      8  H   UNL     1       3.283  12.855   0.000  0.00  0.00    +0.142 HD
ATOM      9  H   UNL     1       4.146  11.385   0.000  0.00  0.00    +0.142 HD
ENDBRANCH   6   7
BRANCH  16  17
ATOM     17  N   UNL     1      -5.765   6.555   0.000  0.00  0.00    -0.358 N 
ATOM     18  H   UNL     1      -5.758   5.571   0.000  0.00  0.00    +0.142 HD
ATOM     19  H   UNL     1      -6.621   7.041   0.000  0.00  0.00    +0.142 HD
ENDBRANCH  16  17
BRANCH   1   2
ATOM      2  C   UNL     1       2.029   6.612   0.000  0.00  0.00    +0.354 C 
ATOM      3  C   UNL     1       3.322   7.371   0.000  0.00  0.00    +0.082 C 
ENDBRANCH   1   2
TORSDOF 4