REMARK  Name = 182986
REMARK  10 active torsions:
REMARK  status: ('A' for Active; 'I' for Inactive)
REMARK    1  A    between atoms: N_1  and  C_8
REMARK    2  A    between atoms: N_4  and  C_7
REMARK    3  A    between atoms: C_5  and  N_15
REMARK    4  A    between atoms: C_10  and  N_16
REMARK    5  A    between atoms: C_17  and  O_24
REMARK    6  A    between atoms: C_19  and  O_21
REMARK    7  A    between atoms: O_21  and  C_22
REMARK    8  A    between atoms: C_22  and  C_23
REMARK    9  A    between atoms: O_24  and  C_25
REMARK   10  A    between atoms: C_25  and  C_26
REMARK                            x       y       z     vdW  Elec       q    Type
REMARK                         _______ _______ _______ _____ _____    ______ ____
ROOT
ATOM      4  C   UNL     1       3.549  -6.750   0.000  0.00  0.00    +0.104 C 
ATOM      5  C   UNL     1       4.848  -7.500   0.000  0.00  0.00    +0.110 C 
ATOM     13  C   UNL     1       6.147  -6.750   0.000  0.00  0.00    +0.225 C 
ATOM     14  C   UNL     1       6.147  -5.250   0.000  0.00  0.00    +0.104 C 
ATOM     15  C   UNL     1       4.848  -4.500   0.000  0.00  0.00    +0.110 C 
ATOM     26  O   UNL     1       7.446  -7.500   0.000  0.00  0.00    -0.284 OA
ATOM     27  C   UNL     1       3.549  -5.250   0.000  0.00  0.00    +0.225 C 
ATOM     28  O   UNL     1       2.250  -4.500   0.000  0.00  0.00    -0.284 OA
ENDROOT
BRANCH   5   6
ATOM      6  N   UNL     1       4.848  -9.000   0.000  0.00  0.00    -0.246 N 
ATOM      7  H   UNL     1       3.995  -9.492   0.000  0.00  0.00    +0.158 HD
ATOM      8  C   UNL     1       6.147  -9.750   0.000  0.00  0.00    +0.405 C 
ATOM     12  O   UNL     1       7.446  -9.000   0.000  0.00  0.00    -0.226 OA
BRANCH   8   9
ATOM      9  O   UNL     1       6.147 -11.250   0.000  0.00  0.00    -0.450 OA
BRANCH   9  10
ATOM     10  C   UNL     1       7.446 -12.000   0.000  0.00  0.00    +0.230 C 
ATOM     11  C   UNL     1       7.446 -13.500   0.000  0.00  0.00    +0.048 C 
ENDBRANCH   9  10
ENDBRANCH   8   9
ENDBRANCH   5   6
BRANCH  15  16
ATOM     16  N   UNL     1       4.848  -3.000   0.000  0.00  0.00    -0.246 N 
ATOM     17  H   UNL     1       5.701  -2.508   0.000  0.00  0.00    +0.158 HD
ATOM     18  C   UNL     1       3.549  -2.250   0.000  0.00  0.00    +0.405 C 
ATOM     22  O   UNL     1       3.549  -0.750   0.000  0.00  0.00    -0.226 OA
BRANCH  18  19
ATOM     19  O   UNL     1       2.250  -3.000   0.000  0.00  0.00    -0.450 OA
BRANCH  19  20
ATOM     20  C   UNL     1       0.951  -2.250   0.000  0.00  0.00    +0.230 C 
ATOM     21  C   UNL     1      -0.348  -3.000   0.000  0.00  0.00    +0.048 C 
ENDBRANCH  19  20
ENDBRANCH  18  19
ENDBRANCH  15  16
BRANCH   4   1
ATOM      1  N   UNL     1       2.250  -7.500   0.000  0.00  0.00    -0.322 N 
ATOM      2  C   UNL     1       1.500  -8.799   0.000  0.00  0.00    +0.124 C 
ATOM      3  C   UNL     1       0.750  -7.500   0.000  0.00  0.00    +0.124 C 
ENDBRANCH   4   1
BRANCH  14  23
ATOM     23  N   UNL     1       7.446  -4.500   0.000  0.00  0.00    -0.322 N 
ATOM     24  C   UNL     1       8.946  -4.500   0.000  0.00  0.00    +0.124 C 
ATOM     25  C   UNL     1       8.196  -3.201   0.000  0.00  0.00    +0.124 C 
ENDBRANCH  14  23
TORSDOF 8