REMARK  Name = 119686
REMARK  2 active torsions:
REMARK  status: ('A' for Active; 'I' for Inactive)
REMARK    1  A    between atoms: C_3  and  C_18
REMARK    2  A    between atoms: C_10  and  C_19
REMARK                            x       y       z     vdW  Elec       q    Type
REMARK                         _______ _______ _______ _____ _____    ______ ____
ROOT
ATOM      1  N   UNL     1     -10.356  -4.500   0.000  0.00  0.00    -0.263 NA
ATOM      2  C   UNL     1     -10.356  -3.000   0.000  0.00  0.00    +0.111 A 
ATOM      3  C   UNL     1      -9.057  -2.250   0.000  0.00  0.00    +0.028 A 
ATOM      4  C   UNL     1      -7.758  -3.000   0.000  0.00  0.00    -0.011 A 
ATOM      5  C   UNL     1      -7.758  -4.500   0.000  0.00  0.00    +0.004 A 
ATOM      6  C   UNL     1      -6.459  -5.250   0.000  0.00  0.00    -0.032 A 
ATOM      7  C   UNL     1      -6.459  -6.750   0.000  0.00  0.00    +0.045 C 
ATOM      8  C   UNL     1      -5.160  -4.500   0.000  0.00  0.00    +0.001 A 
ATOM      9  C   UNL     1      -3.734  -4.963   0.000  0.00  0.00    -0.003 A 
ATOM     10  C   UNL     1      -3.123  -6.334   0.000  0.00  0.00    +0.009 A 
ATOM     11  C   UNL     1      -1.632  -6.491   0.000  0.00  0.00    +0.001 A 
ATOM     12  C   UNL     1      -0.750  -5.277   0.000  0.00  0.00    +0.001 A 
ATOM     13  C   UNL     1      -1.360  -3.907   0.000  0.00  0.00    +0.015 A 
ATOM     14  C   UNL     1      -2.852  -3.750   0.000  0.00  0.00    +0.020 A 
ATOM     15  S   UNL     1      -3.734  -2.537   0.000  0.00  0.00    -0.088 S 
ATOM     16  C   UNL     1      -5.160  -3.000   0.000  0.00  0.00    +0.024 A 
ATOM     17  C   UNL     1      -6.459  -2.250   0.000  0.00  0.00    -0.028 A 
ATOM     18  C   UNL     1      -6.459  -0.750   0.000  0.00  0.00    +0.045 C 
ATOM     19  C   UNL     1      -9.057  -5.250   0.000  0.00  0.00    +0.119 A 
ENDROOT
TORSDOF 0