REMARK  Name = 347466
REMARK  2 active torsions:
REMARK  status: ('A' for Active; 'I' for Inactive)
REMARK    1  A    between atoms: SE_2  and  O_4
REMARK    2  A    between atoms: SE_2  and  O_5
REMARK                            x       y       z     vdW  Elec       q    Type
REMARK                         _______ _______ _______ _____ _____    ______ ____
ROOT
ATOM      1 NA   UNL     1      -0.274   1.025   0.000  0.00  0.00    +0.000 Na
ENDROOT
TORSDOF 0