REMARK  Name = 132493
REMARK  4 active torsions:
REMARK  status: ('A' for Active; 'I' for Inactive)
REMARK    1  A    between atoms: C_6  and  N_13
REMARK    2  A    between atoms: C_8  and  O_14
REMARK    3  A    between atoms: C_10  and  C_16
REMARK    4  A    between atoms: O_14  and  C_15
REMARK                            x       y       z     vdW  Elec       q    Type
REMARK                         _______ _______ _______ _____ _____    ______ ____
ROOT
ATOM      1  O   UNL     1      -5.946  -0.750   0.000  0.00  0.00    -0.284 OA
ATOM      2  C   UNL     1      -5.946  -2.250   0.000  0.00  0.00    +0.229 C 
ATOM      3  C   UNL     1      -7.245  -3.000   0.000  0.00  0.00    +0.120 C 
ATOM      7  C   UNL     1      -7.245  -4.500   0.000  0.00  0.00    +0.192 C 
ATOM     10  C   UNL     1      -5.946  -5.250   0.000  0.00  0.00    +0.231 C 
ATOM     11  C   UNL     1      -4.647  -4.500   0.000  0.00  0.00    +0.055 A 
ATOM     12  C   UNL     1      -3.348  -5.250   0.000  0.00  0.00    +0.016 A 
ATOM     13  C   UNL     1      -2.049  -4.500   0.000  0.00  0.00    +0.024 A 
ATOM     14  C   UNL     1      -2.049  -3.000   0.000  0.00  0.00    +0.039 A 
ATOM     15  C   UNL     1      -0.750  -2.250   0.000  0.00  0.00    +0.065 C 
ATOM     16  N   UNL     1      -3.348  -2.250   0.000  0.00  0.00    -0.248 NA
ATOM     17  O   UNL     1      -5.946  -6.750   0.000  0.00  0.00    -0.283 OA
ATOM     18  C   UNL     1      -4.647  -3.000   0.000  0.00  0.00    +0.124 A 
ENDROOT
BRANCH   3   4
ATOM      4  N   UNL     1      -8.544  -2.250   0.000  0.00  0.00    -0.352 N 
ATOM      5  H   UNL     1      -9.397  -2.742   0.000  0.00  0.00    +0.143 HD
ATOM      6  H   UNL     1      -8.544  -1.266   0.000  0.00  0.00    +0.143 HD
ENDBRANCH   3   4
BRANCH   7   8
ATOM      8  O   UNL     1      -8.544  -5.250   0.000  0.00  0.00    -0.490 OA
ATOM      9  C   UNL     1      -9.843  -4.500   0.000  0.00  0.00    +0.277 C 
ENDBRANCH   7   8
TORSDOF 2