REMARK  Name = 106296
REMARK  4 active torsions:
REMARK  status: ('A' for Active; 'I' for Inactive)
REMARK    1  A    between atoms: N_1  and  C_8
REMARK    2  A    between atoms: N_2  and  C_9
REMARK    3  A    between atoms: C_3  and  C_19
REMARK    4  A    between atoms: C_10  and  O_20
REMARK                            x       y       z     vdW  Elec       q    Type
REMARK                         _______ _______ _______ _____ _____    ______ ____
ROOT
ATOM     10  C   UNL     1       6.221  -1.226   0.000  0.00  0.00    +0.135 A 
ATOM     11  C   UNL     1       7.520  -1.976   0.000  0.00  0.00    +0.013 A 
ATOM     12  C   UNL     1       7.520  -3.475   0.000  0.00  0.00    +0.011 A 
ATOM     13  C   UNL     1       8.819  -4.226   0.000  0.00  0.00    +0.001 A 
ATOM     14  C   UNL     1      10.118  -3.475   0.000  0.00  0.00    +0.001 A 
ATOM     15  C   UNL     1      10.118  -1.976   0.000  0.00  0.00    +0.008 A 
ATOM     16  C   UNL     1       8.819  -1.226   0.000  0.00  0.00    -0.016 A 
ATOM     17  C   UNL     1       8.819   0.275   0.000  0.00  0.00    +0.012 A 
ATOM     18  C   UNL     1       7.520   1.025   0.000  0.00  0.00    +0.048 A 
ATOM     19  C   UNL     1       6.221   0.275   0.000  0.00  0.00    +0.144 A 
ENDROOT
BRANCH  10   9
ATOM      1  N   UNL     1       3.623  -1.226   0.000  0.00  0.00    -0.149 NA
ATOM      9  N   UNL     1       4.922  -1.976   0.000  0.00  0.00    -0.145 NA
BRANCH   1   2
ATOM      2  C   UNL     1       1.479  -2.463   0.000  0.00  0.00    +0.086 A 
ATOM      3  C   UNL     1       1.479  -3.963   0.000  0.00  0.00    +0.030 A 
ATOM      4  C   UNL     1       0.180  -4.713   0.000  0.00  0.00    +0.005 A 
ATOM      5  C   UNL     1      -1.119  -3.963   0.000  0.00  0.00    -0.050 A 
ATOM      6  C   UNL     1      -2.418  -4.713   0.000  0.00  0.00    +0.044 C 
ATOM      7  C   UNL     1      -1.119  -2.463   0.000  0.00  0.00    +0.005 A 
ATOM      8  C   UNL     1       0.180  -1.713   0.000  0.00  0.00    +0.030 A 
ENDBRANCH   1   2
ENDBRANCH  10   9
BRANCH  19  20
ATOM     20  O   UNL     1       4.922   1.025   0.000  0.00  0.00    -0.505 OA
ATOM     21  H   UNL     1       4.922   1.961   0.000  0.00  0.00    +0.292 HD
ENDBRANCH  19  20
TORSDOF 3