REMARK  Name = 143648
REMARK  6 active torsions:
REMARK  status: ('A' for Active; 'I' for Inactive)
REMARK    1  A    between atoms: N_4  and  C1*_11
REMARK    2  A    between atoms: C_5  and  C_19
REMARK    3  A    between atoms: C2*_12  and  O2*_21
REMARK    4  A    between atoms: C3*_13  and  O3*_17
REMARK    5  A    between atoms: C4*_14  and  C5*_18
REMARK    6  A    between atoms: O5*_16  and  C5*_18
REMARK                            x       y       z     vdW  Elec       q    Type
REMARK                         _______ _______ _______ _____ _____    ______ ____
ROOT
ATOM      1 CL   UNL     1      11.156  -0.806   0.000  0.00  0.00    -0.145 Cl
ATOM      2  H   UNL     1      12.486  -0.806   0.000  0.00  0.00    +0.145 HD
ENDROOT
TORSDOF 0