REMARK  Name = 240419
REMARK  12 active torsions:
REMARK  status: ('A' for Active; 'I' for Inactive)
REMARK    1  A    between atoms: C_4  and  C_18
REMARK    2  A    between atoms: C_6  and  N_7
REMARK    3  A    between atoms: N_8  and  C_9
REMARK    4  A    between atoms: C_10  and  C_21
REMARK    5  A    between atoms: C_14  and  N_15
REMARK    6  A    between atoms: N_15  and  C_22
REMARK    7  A    between atoms: N_15  and  C_23
REMARK    8  A    between atoms: C_18  and  O_20
REMARK    9  A    between atoms: C_22  and  C_24
REMARK   10  A    between atoms: C_23  and  C_25
REMARK   11  A    between atoms: C_24  and  C_26
REMARK   12  A    between atoms: C_25  and  C_27
REMARK                            x       y       z     vdW  Elec       q    Type
REMARK                         _______ _______ _______ _____ _____    ______ ____
ROOT
ATOM      7  C   UNL     1     -10.775  -1.574   0.000  0.00  0.00    +0.089 A 
ATOM      8  C   UNL     1     -10.025  -2.873   0.000  0.00  0.00    -0.022 A 
ATOM      9  C   UNL     1     -10.775  -4.172   0.000  0.00  0.00    +0.046 C 
ATOM     10  C   UNL     1      -8.524  -2.873   0.000  0.00  0.00    +0.028 A 
ATOM     11  C   UNL     1      -7.774  -1.574   0.000  0.00  0.00    +0.030 A 
ATOM     21  C   UNL     1      -8.524  -0.275   0.000  0.00  0.00    +0.025 A 
ATOM     22  C   UNL     1     -10.025  -0.275   0.000  0.00  0.00    +0.031 A 
ENDROOT
BRANCH   7   6
ATOM      5  N   UNL     1     -13.025  -0.275   0.000  0.00  0.00    -0.148 NA
ATOM      6  N   UNL     1     -12.275  -1.574   0.000  0.00  0.00    -0.149 NA
BRANCH   5   4
ATOM      1  C   UNL     1     -17.525  -0.275   0.000  0.00  0.00    +0.001 A 
ATOM      2  C   UNL     1     -16.775   1.025   0.000  0.00  0.00    +0.002 A 
ATOM      3  C   UNL     1     -15.275   1.025   0.000  0.00  0.00    +0.030 A 
ATOM      4  C   UNL     1     -14.525  -0.275   0.000  0.00  0.00    +0.100 A 
ATOM     23  C   UNL     1     -15.275  -1.574   0.000  0.00  0.00    +0.086 A 
ATOM     28  C   UNL     1     -16.775  -1.574   0.000  0.00  0.00    +0.017 A 
BRANCH  23  24
ATOM     24  C   UNL     1     -14.525  -2.873   0.000  0.00  0.00    +0.339 C 
ATOM     27  O   UNL     1     -13.025  -2.873   0.000  0.00  0.00    -0.245 OA
BRANCH  24  25
ATOM     25  O   UNL     1     -15.275  -4.172   0.000  0.00  0.00    -0.477 OA
ATOM     26  H   UNL     1     -16.211  -4.172   0.000  0.00  0.00    +0.295 HD
ENDBRANCH  24  25
ENDBRANCH  23  24
ENDBRANCH   5   4
ENDBRANCH   7   6
BRANCH  11  12
ATOM     12  N   UNL     1      -6.274  -1.574   0.000  0.00  0.00    -0.328 N 
BRANCH  12  13
ATOM     13  C   UNL     1      -5.524  -0.275   0.000  0.00  0.00    +0.119 C 
BRANCH  13  14
ATOM     14  C   UNL     1      -4.024  -0.275   0.000  0.00  0.00    +0.071 C 
ATOM     15  C   UNL     1      -3.275  -1.574   0.000  0.00  0.00    +0.021 C 
ATOM     16 BR   UNL     1      -3.275   1.025   0.000  0.00  0.00    -0.087 Br
ENDBRANCH  13  14
ENDBRANCH  12  13
BRANCH  12  17
ATOM     17  C   UNL     1      -5.524  -2.873   0.000  0.00  0.00    +0.119 C 
BRANCH  17  18
ATOM     18  C   UNL     1      -6.274  -4.172   0.000  0.00  0.00    +0.071 C 
ATOM     19  C   UNL     1      -7.774  -4.172   0.000  0.00  0.00    +0.021 C 
ATOM     20 BR   UNL     1      -5.524  -5.471   0.000  0.00  0.00    -0.087 Br
ENDBRANCH  17  18
ENDBRANCH  12  17
ENDBRANCH  11  12
TORSDOF 9