REMARK  Name = 107412
REMARK  31 active torsions:
REMARK  status: ('A' for Active; 'I' for Inactive)
REMARK    1  A    between atoms: O_4  and  C_29
REMARK    2  A    between atoms: O_4  and  C_35
REMARK    3  A    between atoms: O_12  and  C_18
REMARK    4  A    between atoms: O_12  and  C_40
REMARK    5  A    between atoms: C_13  and  O_78
REMARK    6  A    between atoms: C_14  and  N_72
REMARK    7  A    between atoms: C_21  and  C_81
REMARK    8  A    between atoms: C_22  and  O_63
REMARK    9  A    between atoms: C_24  and  N_64
REMARK   10  A    between atoms: C_30  and  C_62
REMARK   11  A    between atoms: C_32  and  C_65
REMARK   12  A    between atoms: C_33  and  C_67
REMARK   13  A    between atoms: C_34  and  C_70
REMARK   14  A    between atoms: C_36  and  O_61
REMARK   15  A    between atoms: C_37  and  O_56
REMARK   16  A    between atoms: C_38  and  C_59
REMARK   17  A    between atoms: C_38  and  C_60
REMARK   18  A    between atoms: C_39  and  O_57
REMARK   19  A    between atoms: C_41  and  O_82
REMARK   20  A    between atoms: C_42  and  O_75
REMARK   21  A    between atoms: C_43  and  C_79
REMARK   22  A    between atoms: C_43  and  C_80
REMARK   23  A    between atoms: C_44  and  O_76
REMARK   24  A    between atoms: C_45  and  C_54
REMARK   25  A    between atoms: C_48  and  C_53
REMARK   26  A    between atoms: C_49  and  C_73
REMARK   27  A    between atoms: C_52  and  C_69
REMARK   28  A    between atoms: C_54  and  O_56
REMARK   29  A    between atoms: O_57  and  C_58
REMARK   30  A    between atoms: C_73  and  O_75
REMARK   31  A    between atoms: O_76  and  C_77
REMARK                            x       y       z     vdW  Elec       q    Type
REMARK                         _______ _______ _______ _____ _____    ______ ____
ROOT
ATOM     34  C   UNL     1      14.367  13.988   0.000  0.00  0.00    +0.058 A 
ATOM     35  C   UNL     1      15.370  12.874   0.000  0.00  0.00    -0.009 A 
ATOM     36  C   UNL     1      15.058  11.406   0.000  0.00  0.00    +0.047 C 
ATOM     37  C   UNL     1      16.741  13.484   0.000  0.00  0.00    +0.106 A 
ATOM     79  N   UNL     1      16.584  14.976   0.000  0.00  0.00    -0.356 N 
ATOM     80  H   UNL     1      17.315  15.634   0.000  0.00  0.00    +0.165 HD
ATOM     81  C   UNL     1      15.117  15.288   0.000  0.00  0.00    +0.096 A 
ENDROOT
BRANCH  34  32
ATOM     30  N   UNL     1      12.265  12.461   0.000  0.00  0.00    -0.273 N 
ATOM     31  H   UNL     1      12.843  11.665   0.000  0.00  0.00    +0.155 HD
ATOM     32  C   UNL     1      12.875  13.832   0.000  0.00  0.00    +0.250 C 
ATOM     33  O   UNL     1      11.993  15.045   0.000  0.00  0.00    -0.270 OA
BRANCH  30  29
ATOM     20  C   UNL     1       5.416  13.048   0.000  0.00  0.00    +0.130 A 
ATOM     21  C   UNL     1       6.297  11.834   0.000  0.00  0.00    +0.034 A 
ATOM     22  C   UNL     1       5.687  10.464   0.000  0.00  0.00    +0.051 C 
ATOM     23  C   UNL     1       7.789  11.991   0.000  0.00  0.00    +0.149 A 
ATOM     24  C   UNL     1       8.399  13.361   0.000  0.00  0.00    +0.061 A 
ATOM     25  C   UNL     1       7.518  14.575   0.000  0.00  0.00    +0.019 A 
ATOM     26  C   UNL     1       9.891  13.518   0.000  0.00  0.00    +0.156 A 
ATOM     29  C   UNL     1      10.773  12.305   0.000  0.00  0.00    +0.162 A 
ATOM     82  C   UNL     1      10.163  10.934   0.000  0.00  0.00    +0.362 A 
ATOM     83  O   UNL     1      11.044   9.721   0.000  0.00  0.00    -0.243 OA
ATOM     84  O   UNL     1       8.671  10.777   0.000  0.00  0.00    -0.420 OA
ATOM     85  C   UNL     1       6.026  14.418   0.000  0.00  0.00    +0.047 A 
BRANCH  26  27
ATOM     27  O   UNL     1      10.501  14.888   0.000  0.00  0.00    -0.504 OA
ATOM     28  H   UNL     1      11.433  14.986   0.000  0.00  0.00    +0.292 HD
ENDBRANCH  26  27
BRANCH  20  19
ATOM     19  O   UNL     1       3.924  12.891   0.000  0.00  0.00    -0.460 OA
BRANCH  19  18
ATOM     10  C   UNL     1       2.771  16.688   0.000  0.00  0.00    +0.243 C 
ATOM     11  C   UNL     1       1.279  16.531   0.000  0.00  0.00    +0.192 C 
ATOM     14  C   UNL     1       0.669  15.161   0.000  0.00  0.00    +0.098 C 
ATOM     15  C   UNL     1       2.161  15.318   0.000  0.00  0.00    +0.044 C 
ATOM     16  C   UNL     1      -0.823  15.004   0.000  0.00  0.00    +0.044 C 
ATOM     17  O   UNL     1       1.551  13.948   0.000  0.00  0.00    -0.331 OA
ATOM     18  C   UNL     1       3.042  14.104   0.000  0.00  0.00    +0.340 C 
ATOM     86  C   UNL     1       3.652  15.475   0.000  0.00  0.00    +0.226 C 
BRANCH  11  12
ATOM     12  O   UNL     1       0.397  17.745   0.000  0.00  0.00    -0.373 OA
ATOM     13  C   UNL     1       1.007  19.115   0.000  0.00  0.00    +0.194 C 
ENDBRANCH  11  12
BRANCH  86  87
ATOM     87  O   UNL     1       5.144  15.632   0.000  0.00  0.00    -0.382 OA
ATOM     88  H   UNL     1       5.714  14.847   0.000  0.00  0.00    +0.210 HD
ENDBRANCH  86  87
BRANCH  10   9
ATOM      9  O   UNL     1       3.381  18.058   0.000  0.00  0.00    -0.451 OA
BRANCH   9   8
ATOM      8  C   UNL     1       4.873  18.215   0.000  0.00  0.00    +0.356 C 
ATOM     89  O   UNL     1       5.754  17.002   0.000  0.00  0.00    -0.243 OA
BRANCH   8   7
ATOM      1  H   UNL     1       8.065  18.894   0.000  0.00  0.00    +0.166 HD
ATOM      2  N   UNL     1       6.950  19.898   0.000  0.00  0.00    -0.353 N 
ATOM      3  C   UNL     1       7.107  21.389   0.000  0.00  0.00    +0.013 A 
ATOM      4  C   UNL     1       8.406  22.139   0.000  0.00  0.00    +0.063 C 
ATOM      5  C   UNL     1       5.736  21.999   0.000  0.00  0.00    +0.023 A 
ATOM      6  C   UNL     1       4.733  20.885   0.000  0.00  0.00    +0.034 A 
ATOM      7  C   UNL     1       5.483  19.586   0.000  0.00  0.00    +0.125 A 
ENDBRANCH   8   7
ENDBRANCH   9   8
ENDBRANCH  10   9
ENDBRANCH  19  18
ENDBRANCH  20  19
ENDBRANCH  30  29
ENDBRANCH  34  32
BRANCH  37  38
ATOM     38  C   UNL     1      18.040  12.734   0.000  0.00  0.00    +0.265 C 
ATOM     39  N   UNL     1      18.040  11.234   0.000  0.00  0.00    -0.272 N 
ATOM     40  H   UNL     1      17.187  10.742   0.000  0.00  0.00    +0.155 HD
ATOM     78  O   UNL     1      19.339  13.484   0.000  0.00  0.00    -0.268 OA
BRANCH  39  41
ATOM     41  C   UNL     1      19.339  10.484   0.000  0.00  0.00    +0.162 A 
ATOM     42  C   UNL     1      19.339   8.984   0.000  0.00  0.00    +0.362 A 
ATOM     43  O   UNL     1      20.638   8.234   0.000  0.00  0.00    -0.420 OA
ATOM     44  C   UNL     1      21.937   8.984   0.000  0.00  0.00    +0.149 A 
ATOM     45  C   UNL     1      23.236   8.234   0.000  0.00  0.00    +0.034 A 
ATOM     46  C   UNL     1      23.236   6.734   0.000  0.00  0.00    +0.051 C 
ATOM     47  C   UNL     1      24.535   8.984   0.000  0.00  0.00    +0.130 A 
ATOM     48  C   UNL     1      24.535  10.484   0.000  0.00  0.00    +0.047 A 
ATOM     49  C   UNL     1      23.236  11.234   0.000  0.00  0.00    +0.019 A 
ATOM     73  C   UNL     1      21.937  10.484   0.000  0.00  0.00    +0.061 A 
ATOM     74  O   UNL     1      18.040   8.234   0.000  0.00  0.00    -0.243 OA
ATOM     75  C   UNL     1      20.638  11.234   0.000  0.00  0.00    +0.156 A 
BRANCH  75  76
ATOM     76  O   UNL     1      20.638  12.734   0.000  0.00  0.00    -0.504 OA
ATOM     77  H   UNL     1      21.449  13.202   0.000  0.00  0.00    +0.292 HD
ENDBRANCH  75  76
BRANCH  47  50
ATOM     50  O   UNL     1      25.834   8.234   0.000  0.00  0.00    -0.460 OA
BRANCH  50  51
ATOM     51  C   UNL     1      27.133   8.984   0.000  0.00  0.00    +0.340 C 
ATOM     52  C   UNL     1      27.133  10.484   0.000  0.00  0.00    +0.226 C 
ATOM     55  C   UNL     1      28.432  11.234   0.000  0.00  0.00    +0.243 C 
ATOM     66  C   UNL     1      29.731  10.484   0.000  0.00  0.00    +0.192 C 
ATOM     69  C   UNL     1      29.731   8.984   0.000  0.00  0.00    +0.098 C 
ATOM     70  C   UNL     1      31.030   8.234   0.000  0.00  0.00    +0.044 C 
ATOM     71  C   UNL     1      28.432   9.734   0.000  0.00  0.00    +0.044 C 
ATOM     72  O   UNL     1      28.432   8.234   0.000  0.00  0.00    -0.331 OA
BRANCH  52  53
ATOM     53  O   UNL     1      25.834  11.234   0.000  0.00  0.00    -0.382 OA
ATOM     54  H   UNL     1      25.834  12.204   0.000  0.00  0.00    +0.210 HD
ENDBRANCH  52  53
BRANCH  66  67
ATOM     67  O   UNL     1      31.030  11.234   0.000  0.00  0.00    -0.373 OA
ATOM     68  C   UNL     1      31.030  12.734   0.000  0.00  0.00    +0.194 C 
ENDBRANCH  66  67
BRANCH  55  56
ATOM     56  O   UNL     1      28.432  12.734   0.000  0.00  0.00    -0.451 OA
BRANCH  56  57
ATOM     57  C   UNL     1      27.133  13.484   0.000  0.00  0.00    +0.356 C 
ATOM     58  O   UNL     1      25.834  12.734   0.000  0.00  0.00    -0.243 OA
BRANCH  57  59
ATOM     59  C   UNL     1      27.133  14.984   0.000  0.00  0.00    +0.125 A 
ATOM     60  C   UNL     1      28.346  15.866   0.000  0.00  0.00    +0.034 A 
ATOM     61  C   UNL     1      27.883  17.292   0.000  0.00  0.00    +0.023 A 
ATOM     62  C   UNL     1      26.383  17.292   0.000  0.00  0.00    +0.013 A 
ATOM     63  C   UNL     1      25.501  18.506   0.000  0.00  0.00    +0.063 C 
ATOM     64  N   UNL     1      25.919  15.866   0.000  0.00  0.00    -0.353 N 
ATOM     65  H   UNL     1      24.493  15.402   0.000  0.00  0.00    +0.166 HD
ENDBRANCH  57  59
ENDBRANCH  56  57
ENDBRANCH  55  56
ENDBRANCH  50  51
ENDBRANCH  47  50
ENDBRANCH  39  41
ENDBRANCH  37  38
TORSDOF 20