REMARK  Name = 169676
REMARK  11 active torsions:
REMARK  status: ('A' for Active; 'I' for Inactive)
REMARK    1  A    between atoms: N_1  and  C_22
REMARK    2  A    between atoms: N_2  and  C_23
REMARK    3  A    between atoms: N_3  and  C_25
REMARK    4  A    between atoms: C_11  and  C_29
REMARK    5  A    between atoms: C_22  and  C_26
REMARK    6  A    between atoms: C_23  and  C_24
REMARK    7  A    between atoms: C_24  and  C_25
REMARK    8  A    between atoms: C_26  and  N_27
REMARK    9  A    between atoms: N_27  and  C_28
REMARK   10  A    between atoms: C_28  and  C_33
REMARK   11  A    between atoms: C_33  and  O_34
REMARK                            x       y       z     vdW  Elec       q    Type
REMARK                         _______ _______ _______ _____ _____    ______ ____
ROOT
ATOM      1 CL   UNL     1      -0.962  -0.750   0.000  0.00  0.00    -0.145 Cl
ATOM      2  H   UNL     1       0.368  -0.750   0.000  0.00  0.00    +0.145 HD
ENDROOT
TORSDOF 0