REMARK  Name = 118732
REMARK  5 active torsions:
REMARK  status: ('A' for Active; 'I' for Inactive)
REMARK    1  A    between atoms: N_4  and  N_21
REMARK    2  A    between atoms: C_5  and  C_19
REMARK    3  A    between atoms: C_12  and  C_20
REMARK    4  A    between atoms: C_14  and  N_21
REMARK    5  A    between atoms: C_17  and  N_22
REMARK                            x       y       z     vdW  Elec       q    Type
REMARK                         _______ _______ _______ _____ _____    ______ ____
ROOT
ATOM      1  N   UNL     1      -8.863   2.219   0.000  0.00  0.00    -0.279 N 
ATOM      2  H   UNL     1      -8.399   3.646   0.000  0.00  0.00    +0.155 HD
ATOM      3  C   UNL     1      -7.981   1.005   0.000  0.00  0.00    +0.269 C 
ATOM      4  C   UNL     1      -8.863  -0.208   0.000  0.00  0.00    +0.153 C 
ATOM      5  C   UNL     1     -10.289   0.255   0.000  0.00  0.00    +0.031 A 
ATOM      6  C   UNL     1     -11.588  -0.495   0.000  0.00  0.00    -0.039 A 
ATOM      7  C   UNL     1     -11.588  -1.995   0.000  0.00  0.00    +0.044 C 
ATOM      8  C   UNL     1     -12.887   0.255   0.000  0.00  0.00    +0.004 A 
ATOM      9  C   UNL     1     -12.887   1.755   0.000  0.00  0.00    +0.005 A 
ATOM     10  C   UNL     1     -11.588   2.505   0.000  0.00  0.00    -0.029 A 
ATOM     11  C   UNL     1     -11.588   4.005   0.000  0.00  0.00    +0.045 C 
ATOM     12  N   UNL     1      -8.399  -1.635   0.000  0.00  0.00    -0.177 NA
ATOM     24  O   UNL     1      -6.481   1.005   0.000  0.00  0.00    -0.268 OA
ATOM     25  C   UNL     1     -10.289   1.755   0.000  0.00  0.00    +0.046 A 
ENDROOT
BRANCH  12  13
ATOM     13  N   UNL     1      -6.932  -1.947   0.000  0.00  0.00    -0.231 N 
ATOM     14  H   UNL     1      -6.273  -1.215   0.000  0.00  0.00    +0.175 HD
BRANCH  13  15
ATOM     15  C   UNL     1      -6.468  -3.373   0.000  0.00  0.00    +0.125 A 
ATOM     16  C   UNL     1      -5.001  -3.685   0.000  0.00  0.00    +0.295 A 
ATOM     20  C   UNL     1      -4.537  -5.112   0.000  0.00  0.00    +0.086 A 
ATOM     21  C   UNL     1      -5.541  -6.226   0.000  0.00  0.00    +0.007 A 
ATOM     22  C   UNL     1      -7.008  -5.915   0.000  0.00  0.00    +0.002 A 
ATOM     23  C   UNL     1      -7.472  -4.488   0.000  0.00  0.00    +0.031 A 
BRANCH  16  17
ATOM     17  N   UNL     1      -3.997  -2.570   0.000  0.00  0.00    +0.082 N 
ATOM     18  O   UNL     1      -2.530  -2.882   0.000  0.00  0.00    +0.042 OA
ATOM     19  O   UNL     1      -4.461  -1.144   0.000  0.00  0.00    -0.576 OA
ENDBRANCH  16  17
ENDBRANCH  13  15
ENDBRANCH  12  13
TORSDOF 3