REMARK  Name = 123390
REMARK  5 active torsions:
REMARK  status: ('A' for Active; 'I' for Inactive)
REMARK    1  A    between atoms: C_12  and  O_24
REMARK    2  A    between atoms: C_20  and  O_23
REMARK    3  A    between atoms: C_21  and  O_22
REMARK    4  A    between atoms: O_22  and  C_25
REMARK    5  A    between atoms: O_23  and  C_26
REMARK                            x       y       z     vdW  Elec       q    Type
REMARK                         _______ _______ _______ _____ _____    ______ ____
ROOT
ATOM      1  C   UNL     1       1.422   0.963   0.000  0.00  0.00    +0.466 C 
ATOM      2  O   UNL     1       2.303  -0.251   0.000  0.00  0.00    -0.453 OA
ATOM      3  C   UNL     1       3.730   0.212   0.000  0.00  0.00    +0.167 A 
ATOM      4  C   UNL     1       5.029  -0.537   0.000  0.00  0.00    +0.064 A 
ATOM      5  C   UNL     1       6.328   0.212   0.000  0.00  0.00    +0.057 A 
ATOM      6  C   UNL     1       7.627  -0.537   0.000  0.00  0.00    +0.258 A 
ATOM      7  C   UNL     1       7.627  -2.038   0.000  0.00  0.00    +0.198 A 
ATOM     10  C   UNL     1       8.926  -2.788   0.000  0.00  0.00    +0.040 A 
ATOM     11  C   UNL     1       8.926  -4.287   0.000  0.00  0.00    +0.016 A 
ATOM     12  C   UNL     1      10.225  -5.037   0.000  0.00  0.00    +0.050 A 
ATOM     13  C   UNL     1      11.524  -4.287   0.000  0.00  0.00    +0.162 A 
ATOM     16  C   UNL     1      11.524  -2.788   0.000  0.00  0.00    +0.175 A 
ATOM     19  C   UNL     1      10.225  -2.038   0.000  0.00  0.00    +0.094 A 
ATOM     20  C   UNL     1      10.225  -0.537   0.000  0.00  0.00    +0.322 A 
ATOM     21  N   UNL     1       8.926   0.212   0.000  0.00  0.00    -0.193 N 
ATOM     22  C   UNL     1       8.926   1.712   0.000  0.00  0.00    +0.362 C 
ATOM     23  C   UNL     1       7.627   2.462   0.000  0.00  0.00    +0.108 C 
ATOM     24  C   UNL     1       6.328   1.712   0.000  0.00  0.00    -0.024 A 
ATOM     25  C   UNL     1       5.029   2.462   0.000  0.00  0.00    +0.054 A 
ATOM     26  C   UNL     1       3.730   1.712   0.000  0.00  0.00    +0.167 A 
ATOM     27  O   UNL     1       2.303   2.176   0.000  0.00  0.00    -0.453 OA
ENDROOT
BRANCH   7   8
ATOM      8  O   UNL     1       6.328  -2.788   0.000  0.00  0.00    -0.501 OA
ATOM      9  H   UNL     1       5.517  -2.319   0.000  0.00  0.00    +0.292 HD
ENDBRANCH   7   8
BRANCH  13  14
ATOM     14  O   UNL     1      12.823  -5.037   0.000  0.00  0.00    -0.491 OA
ATOM     15  C   UNL     1      14.122  -4.287   0.000  0.00  0.00    +0.277 C 
ENDBRANCH  13  14
BRANCH  16  17
ATOM     17  O   UNL     1      12.823  -2.038   0.000  0.00  0.00    -0.491 OA
ATOM     18  C   UNL     1      14.122  -2.788   0.000  0.00  0.00    +0.277 C 
ENDBRANCH  16  17
TORSDOF 3