REMARK  Name = 147340
REMARK  8 active torsions:
REMARK  status: ('A' for Active; 'I' for Inactive)
REMARK    1  A    between atoms: C_3  and  O_16
REMARK    2  A    between atoms: C_4  and  C_15
REMARK    3  A    between atoms: C_5  and  O_20
REMARK    4  A    between atoms: C_8  and  C_15
REMARK    5  A    between atoms: C_11  and  O_13
REMARK    6  A    between atoms: O_13  and  C_14
REMARK    7  A    between atoms: O_16  and  C_17
REMARK    8  A    between atoms: C_17  and  C_19
REMARK                            x       y       z     vdW  Elec       q    Type
REMARK                         _______ _______ _______ _____ _____    ______ ____
ROOT
ATOM      1 CL   UNL     1       4.250  -8.793   0.000  0.00  0.00    -0.145 Cl
ATOM      2  H   UNL     1       5.580  -8.793   0.000  0.00  0.00    +0.145 HD
ENDROOT
TORSDOF 0