REMARK  Name = 11779
REMARK  7 active torsions:
REMARK  status: ('A' for Active; 'I' for Inactive)
REMARK    1  A    between atoms: C_1  and  C_9
REMARK    2  A    between atoms: C_2  and  C_7
REMARK    3  A    between atoms: C_2  and  C_8
REMARK    4  A    between atoms: C_3  and  C_4
REMARK    5  A    between atoms: C_4  and  O_10
REMARK    6  A    between atoms: C_6  and  C_11
REMARK    7  A    between atoms: C_6  and  C_12
REMARK                            x       y       z     vdW  Elec       q    Type
REMARK                         _______ _______ _______ _____ _____    ______ ____
ROOT
ATOM      1  C   UNL     1      -4.833  -0.750   0.000  0.00  0.00    +0.032 C 
ATOM      6  C   UNL     1      -4.833   0.750   0.000  0.00  0.00    +0.111 C 
ATOM     11  C   UNL     1      -3.535   0.000   0.000  0.00  0.00    -0.014 C 
ATOM     12  C   UNL     1      -2.235   0.750   0.000  0.00  0.00    +0.012 C 
ATOM     13  C   UNL     1      -2.785  -1.299   0.000  0.00  0.00    +0.012 C 
ENDROOT
BRANCH   1   2
ATOM      2  C   UNL     1      -5.583  -2.049   0.000  0.00  0.00    -0.023 C 
ATOM      3  C   UNL     1      -7.083  -2.049   0.000  0.00  0.00    -0.079 C 
ATOM      4  C   UNL     1      -7.833  -0.750   0.000  0.00  0.00    +0.038 C 
ATOM      5  C   UNL     1      -7.833  -3.348   0.000  0.00  0.00    +0.038 C 
ENDBRANCH   1   2
BRANCH   6   7
ATOM      7  C   UNL     1      -5.583   2.049   0.000  0.00  0.00    +0.309 C 
ATOM     10  O   UNL     1      -7.083   2.049   0.000  0.00  0.00    -0.251 OA
BRANCH   7   8
ATOM      8  O   UNL     1      -4.833   3.348   0.000  0.00  0.00    -0.480 OA
ATOM      9  H   UNL     1      -3.897   3.348   0.000  0.00  0.00    +0.295 HD
ENDBRANCH   7   8
ENDBRANCH   6   7
TORSDOF 3