REMARK  Name = 142982
REMARK  12 active torsions:
REMARK  status: ('A' for Active; 'I' for Inactive)
REMARK    1  A    between atoms: C_3  and  N_16
REMARK    2  A    between atoms: C_14  and  C_17
REMARK    3  A    between atoms: N_16  and  C_18
REMARK    4  A    between atoms: C_17  and  O_19
REMARK    5  A    between atoms: C_18  and  C_20
REMARK    6  A    between atoms: C_20  and  N_21
REMARK    7  A    between atoms: N_21  and  C_22
REMARK    8  A    between atoms: N_21  and  C_24
REMARK    9  A    between atoms: C_22  and  C_23
REMARK   10  A    between atoms: C_24  and  C_25
REMARK   11  A    between atoms: C_26  and  S_27
REMARK   12  A    between atoms: S_27  and  O_30
REMARK                            x       y       z     vdW  Elec       q    Type
REMARK                         _______ _______ _______ _____ _____    ______ ____
ROOT
ATOM      1  C   UNL     1       0.750  -4.299   0.000  0.00  0.00    +0.228 C 
ATOM      2  S   UNL     1       0.750  -2.799   0.000  0.00  0.00    +0.077 S 
ATOM      5  O   UNL     1       0.750  -1.299   0.000  0.00  0.00    -0.148 OA
ATOM      6  O   UNL     1      -0.750  -2.799   0.000  0.00  0.00    -0.148 OA
ENDROOT
BRANCH   2   3
ATOM      3  O   UNL     1       2.250  -2.799   0.000  0.00  0.00    -0.254 OA
ATOM      4  H   UNL     1       2.735  -3.639   0.000  0.00  0.00    +0.244 HD
ENDBRANCH   2   3
TORSDOF 1