REMARK  Name = 339004
REMARK  3 active torsions:
REMARK  status: ('A' for Active; 'I' for Inactive)
REMARK    1  A    between atoms: C_1  and  N_21
REMARK    2  A    between atoms: C_6  and  S_7
REMARK    3  A    between atoms: S_7  and  N_22
REMARK                            x       y       z     vdW  Elec       q    Type
REMARK                         _______ _______ _______ _____ _____    ______ ____
ROOT
ATOM      9  N   UNL     1       5.625   4.748   0.000  0.00  0.00    -0.198 N 
ATOM     10  H   UNL     1       6.117   3.895   0.000  0.00  0.00    +0.175 HD
ATOM     11  C   UNL     1       6.375   6.047   0.000  0.00  0.00    +0.157 A 
ATOM     12  N   UNL     1       7.875   6.047   0.000  0.00  0.00    -0.228 NA
ATOM     13  C   UNL     1       8.625   7.346   0.000  0.00  0.00    +0.093 A 
ATOM     14  C   UNL     1      10.125   7.346   0.000  0.00  0.00    +0.030 A 
ATOM     15  C   UNL     1      10.875   8.645   0.000  0.00  0.00    +0.004 A 
ATOM     16  C   UNL     1      10.125   9.944   0.000  0.00  0.00    +0.022 A 
ATOM     17  C   UNL     1       8.625   9.944   0.000  0.00  0.00    +0.068 A 
ATOM     18 CL   UNL     1       7.875  11.243   0.000  0.00  0.00    -0.081 Cl
ATOM     19  C   UNL     1       7.875   8.645   0.000  0.00  0.00    +0.108 A 
ATOM     20  N   UNL     1       6.375   8.645   0.000  0.00  0.00    -0.249 NA
ATOM     21  C   UNL     1       5.625   7.346   0.000  0.00  0.00    +0.156 A 
ENDROOT
BRANCH   9   8
ATOM      8  S   UNL     1       4.125   4.748   0.000  0.00  0.00    +0.074 S 
ATOM     22  O   UNL     1       4.125   3.248   0.000  0.00  0.00    -0.150 OA
ATOM     23  O   UNL     1       4.125   6.248   0.000  0.00  0.00    -0.150 OA
BRANCH   8   7
ATOM      1  C   UNL     1      -0.375   4.748   0.000  0.00  0.00    +0.025 A 
ATOM      5  C   UNL     1       0.375   3.449   0.000  0.00  0.00    +0.024 A 
ATOM      6  C   UNL     1       1.875   3.449   0.000  0.00  0.00    +0.030 A 
ATOM      7  C   UNL     1       2.625   4.748   0.000  0.00  0.00    +0.109 A 
ATOM     24  C   UNL     1       1.875   6.047   0.000  0.00  0.00    +0.030 A 
ATOM     25  C   UNL     1       0.375   6.047   0.000  0.00  0.00    +0.024 A 
BRANCH   1   2
ATOM      2  N   UNL     1      -1.875   4.748   0.000  0.00  0.00    -0.358 N 
ATOM      3  H   UNL     1      -2.367   3.895   0.000  0.00  0.00    +0.142 HD
ATOM      4  H   UNL     1      -2.367   5.600   0.000  0.00  0.00    +0.142 HD
ENDBRANCH   1   2
ENDBRANCH   8   7
ENDBRANCH   9   8
TORSDOF 3