REMARK  Name = 305884
REMARK  6 active torsions:
REMARK  status: ('A' for Active; 'I' for Inactive)
REMARK    1  A    between atoms: C_5  and  N_23
REMARK    2  A    between atoms: C_10  and  N_28
REMARK    3  A    between atoms: C_15  and  N_28
REMARK    4  A    between atoms: C_19  and  C_21
REMARK    5  A    between atoms: N_23  and  C_27
REMARK    6  A    between atoms: C_24  and  C_26
REMARK                            x       y       z     vdW  Elec       q    Type
REMARK                         _______ _______ _______ _____ _____    ______ ____
ROOT
ATOM      1 CL   UNL     1       4.894  -9.208   0.000  0.00  0.00    -0.145 Cl
ATOM      2  H   UNL     1       6.224  -9.208   0.000  0.00  0.00    +0.145 HD
ENDROOT
TORSDOF 0