REMARK  Name = 111041
REMARK  1 active torsions:
REMARK  status: ('A' for Active; 'I' for Inactive)
REMARK    1  A    between atoms: C_7  and  N_14
REMARK                            x       y       z     vdW  Elec       q    Type
REMARK                         _______ _______ _______ _____ _____    ______ ____
ROOT
ATOM      1  O   UNL     1      -5.946  -0.750   0.000  0.00  0.00    -0.284 OA
ATOM      2  C   UNL     1      -5.946  -2.250   0.000  0.00  0.00    +0.223 C 
ATOM      3  C   UNL     1      -7.245  -3.000   0.000  0.00  0.00    +0.076 C 
ATOM      7  C   UNL     1      -7.245  -4.500   0.000  0.00  0.00    +0.054 C 
ATOM      8  C   UNL     1      -5.946  -5.250   0.000  0.00  0.00    +0.066 C 
ATOM      9  N   UNL     1      -5.946  -6.750   0.000  0.00  0.00    -0.299 NA
ATOM     10  H   UNL     1      -6.799  -7.242   0.000  0.00  0.00    +0.187 HD
ATOM     11  C   UNL     1      -4.647  -4.500   0.000  0.00  0.00    +0.027 A 
ATOM     12  C   UNL     1      -3.348  -5.250   0.000  0.00  0.00    +0.017 A 
ATOM     13  C   UNL     1      -2.049  -4.500   0.000  0.00  0.00    +0.071 A 
ATOM     14  C   UNL     1      -2.049  -3.000   0.000  0.00  0.00    +0.249 A 
ATOM     15  O   UNL     1      -0.750  -2.250   0.000  0.00  0.00    -0.268 OA
ATOM     16  N   UNL     1      -3.348  -2.250   0.000  0.00  0.00    -0.319 N 
ATOM     17  H   UNL     1      -3.348  -0.750   0.000  0.00  0.00    +0.169 HD
ATOM     18  C   UNL     1      -4.647  -3.000   0.000  0.00  0.00    +0.100 A 
ENDROOT
BRANCH   3   4
ATOM      4  N   UNL     1      -8.544  -2.250   0.000  0.00  0.00    -0.355 N 
ATOM      5  H   UNL     1      -9.397  -2.742   0.000  0.00  0.00    +0.142 HD
ATOM      6  H   UNL     1      -8.544  -1.266   0.000  0.00  0.00    +0.142 HD
ENDBRANCH   3   4
TORSDOF 1