REMARK  Name = 283162
REMARK  9 active torsions:
REMARK  status: ('A' for Active; 'I' for Inactive)
REMARK    1  A    between atoms: N_7  and  C_8
REMARK    2  A    between atoms: N_7  and  C_14
REMARK    3  A    between atoms: C_8  and  O_17
REMARK    4  A    between atoms: N_9  and  C_10
REMARK    5  A    between atoms: N_9  and  C_15
REMARK    6  A    between atoms: C_10  and  O_18
REMARK    7  A    between atoms: N_11  and  C_12
REMARK    8  A    between atoms: N_11  and  C_13
REMARK    9  A    between atoms: C_12  and  O_16
REMARK                            x       y       z     vdW  Elec       q    Type
REMARK                         _______ _______ _______ _____ _____    ______ ____
ROOT
ATOM      1  C   UNL     1      -7.245  -3.000   0.000  0.00  0.00    +0.225 A 
ATOM      2  N   UNL     1      -8.544  -2.250   0.000  0.00  0.00    -0.280 N 
ATOM      3  C   UNL     1      -8.544  -0.750   0.000  0.00  0.00    +0.134 C 
ATOM      7  N   UNL     1      -5.946  -2.250   0.000  0.00  0.00    -0.181 NA
ATOM      8  C   UNL     1      -4.647  -3.000   0.000  0.00  0.00    +0.225 A 
ATOM      9  N   UNL     1      -3.348  -2.250   0.000  0.00  0.00    -0.280 N 
ATOM     10  C   UNL     1      -3.348  -0.750   0.000  0.00  0.00    +0.134 C 
ATOM     14  N   UNL     1      -4.647  -4.500   0.000  0.00  0.00    -0.181 NA
ATOM     15  C   UNL     1      -5.946  -5.250   0.000  0.00  0.00    +0.225 A 
ATOM     16  N   UNL     1      -5.946  -6.750   0.000  0.00  0.00    -0.280 N 
ATOM     17  C   UNL     1      -7.245  -7.500   0.000  0.00  0.00    +0.134 C 
ATOM     21  N   UNL     1      -7.245  -4.500   0.000  0.00  0.00    -0.181 NA
ENDROOT
BRANCH   2   4
ATOM      4  C   UNL     1      -9.843  -3.000   0.000  0.00  0.00    +0.266 C 
BRANCH   4   5
ATOM      5  O   UNL     1     -11.142  -2.250   0.000  0.00  0.00    -0.377 OA
ATOM      6  H   UNL     1     -11.142  -1.280   0.000  0.00  0.00    +0.211 HD
ENDBRANCH   4   5
ENDBRANCH   2   4
BRANCH   9  11
ATOM     11  C   UNL     1      -2.049  -3.000   0.000  0.00  0.00    +0.266 C 
BRANCH  11  12
ATOM     12  O   UNL     1      -0.750  -2.250   0.000  0.00  0.00    -0.377 OA
ATOM     13  H   UNL     1       0.090  -2.735   0.000  0.00  0.00    +0.211 HD
ENDBRANCH  11  12
ENDBRANCH   9  11
BRANCH  16  18
ATOM     18  C   UNL     1      -4.647  -7.500   0.000  0.00  0.00    +0.266 C 
BRANCH  18  19
ATOM     19  O   UNL     1      -3.348  -6.750   0.000  0.00  0.00    -0.377 OA
ATOM     20  H   UNL     1      -2.508  -7.235   0.000  0.00  0.00    +0.211 HD
ENDBRANCH  18  19
ENDBRANCH  16  18
TORSDOF 6