REMARK  Name = 173046
REMARK  8 active torsions:
REMARK  status: ('A' for Active; 'I' for Inactive)
REMARK    1  A    between atoms: PB_1  and  O_2
REMARK    2  A    between atoms: PB_1  and  O_3
REMARK    3  A    between atoms: PB_1  and  C_4
REMARK    4  A    between atoms: PB_1  and  C_5
REMARK    5  A    between atoms: O_2  and  C_6
REMARK    6  A    between atoms: O_3  and  C_7
REMARK    7  A    between atoms: C_6  and  C_12
REMARK    8  A    between atoms: C_7  and  C_14
REMARK                            x       y       z     vdW  Elec       q    Type
REMARK                         _______ _______ _______ _____ _____    ______ ____
ROOT
ATOM      1 PB   UNL     1      -4.500   5.633   0.000  0.00  0.00    +0.000 Pb
ENDROOT
BRANCH   1   2
ATOM      2  C   UNL     1      -4.500   4.133   0.000  0.00  0.00    +0.000 A 
ATOM      3  C   UNL     1      -5.799   3.383   0.000  0.00  0.00    +0.000 A 
ATOM      4  C   UNL     1      -5.799   1.883   0.000  0.00  0.00    +0.000 A 
ATOM      5  C   UNL     1      -4.500   1.133   0.000  0.00  0.00    +0.000 A 
ATOM      6  C   UNL     1      -3.201   1.883   0.000  0.00  0.00    +0.000 A 
ATOM      7  C   UNL     1      -3.201   3.383   0.000  0.00  0.00    +0.000 A 
ENDBRANCH   1   2
BRANCH   1   8
ATOM      8  C   UNL     1      -4.500   7.133   0.000  0.00  0.00    +0.000 A 
ATOM      9  C   UNL     1      -3.201   7.883   0.000  0.00  0.00    +0.000 A 
ATOM     10  C   UNL     1      -3.201   9.383   0.000  0.00  0.00    +0.000 A 
ATOM     11  C   UNL     1      -4.500  10.133   0.000  0.00  0.00    +0.000 A 
ATOM     12  C   UNL     1      -5.799   9.383   0.000  0.00  0.00    +0.000 A 
ATOM     13  C   UNL     1      -5.799   7.883   0.000  0.00  0.00    +0.000 A 
ENDBRANCH   1   8
BRANCH   1  14
ATOM     14  O   UNL     1      -6.525   5.633   0.000  0.00  0.00    +0.000 OA
BRANCH  14  15
ATOM     15  C   UNL     1      -7.537   3.880   0.000  0.00  0.00    +0.000 C 
ATOM     16  O   UNL     1      -9.037   3.880   0.000  0.00  0.00    +0.000 OA
ATOM     17  C   UNL     1      -6.787   2.581   0.000  0.00  0.00    +0.000 C 
ENDBRANCH  14  15
ENDBRANCH   1  14
BRANCH   1  18
ATOM     18  O   UNL     1      -1.766   5.633   0.000  0.00  0.00    +0.000 OA
BRANCH  18  19
ATOM     19  C   UNL     1      -1.016   4.334   0.000  0.00  0.00    +0.000 C 
ATOM     20  O   UNL     1      -1.766   3.035   0.000  0.00  0.00    +0.000 OA
ATOM     21  C   UNL     1       0.484   4.334   0.000  0.00  0.00    +0.000 C 
ENDBRANCH  18  19
ENDBRANCH   1  18
TORSDOF 6