REMARK  Name = 335142
REMARK  3 active torsions:
REMARK  status: ('A' for Active; 'I' for Inactive)
REMARK    1  A    between atoms: C_11  and  C_21
REMARK    2  A    between atoms: C_12  and  C_22
REMARK    3  A    between atoms: C_16  and  C_18
REMARK                            x       y       z     vdW  Elec       q    Type
REMARK                         _______ _______ _______ _____ _____    ______ ____
ROOT
ATOM      1 CL   UNL     1      -0.244  10.947   0.000  0.00  0.00    -0.145 Cl
ATOM      2  H   UNL     1       1.086  10.947   0.000  0.00  0.00    +0.145 HD
ENDROOT
TORSDOF 0