REMARK  Name = 126771
REMARK  3 active torsions:
REMARK  status: ('A' for Active; 'I' for Inactive)
REMARK    1  A    between atoms: C_4  and  C_14
REMARK    2  A    between atoms: C_8  and  O_13
REMARK    3  A    between atoms: C_14  and  C_15
REMARK                            x       y       z     vdW  Elec       q    Type
REMARK                         _______ _______ _______ _____ _____    ______ ____
ROOT
ATOM      1  O   UNL     1      -7.245  -0.750   0.000  0.00  0.00    -0.287 OA
ATOM      2  C   UNL     1      -7.245  -2.250   0.000  0.00  0.00    +0.194 C 
ATOM      3  C   UNL     1      -8.544  -3.000   0.000  0.00  0.00    +0.033 A 
ATOM      4  C   UNL     1      -9.843  -2.250   0.000  0.00  0.00    +0.012 A 
ATOM      5  C   UNL     1     -11.142  -3.000   0.000  0.00  0.00    +0.001 A 
ATOM      6  C   UNL     1     -11.142  -4.500   0.000  0.00  0.00    +0.001 A 
ATOM      7  C   UNL     1      -9.843  -5.250   0.000  0.00  0.00    +0.012 A 
ATOM      8  C   UNL     1      -8.544  -4.500   0.000  0.00  0.00    +0.036 A 
ATOM      9  C   UNL     1      -7.245  -5.250   0.000  0.00  0.00    +0.228 C 
ATOM     10  C   UNL     1      -5.946  -4.500   0.000  0.00  0.00    +0.171 C 
ATOM     13  O   UNL     1      -7.245  -6.750   0.000  0.00  0.00    -0.283 OA
ATOM     14  C   UNL     1      -5.946  -3.000   0.000  0.00  0.00    +0.049 C 
ENDROOT
BRANCH  10  11
ATOM     11  O   UNL     1      -4.647  -5.250   0.000  0.00  0.00    -0.503 OA
ATOM     12  H   UNL     1      -4.647  -6.187   0.000  0.00  0.00    +0.292 HD
ENDBRANCH  10  11
BRANCH  14  15
ATOM     15  C   UNL     1      -4.647  -2.250   0.000  0.00  0.00    +0.072 C 
BRANCH  15  16
ATOM     16  C   UNL     1      -3.348  -3.000   0.000  0.00  0.00    +0.010 C 
ATOM     17  C   UNL     1      -2.049  -2.250   0.000  0.00  0.00    +0.103 C 
ATOM     18 CL   UNL     1      -2.049  -0.750   0.000  0.00  0.00    -0.071 Cl
ATOM     19 CL   UNL     1      -0.750  -3.000   0.000  0.00  0.00    -0.071 Cl
ENDBRANCH  15  16
ENDBRANCH  14  15
TORSDOF 3