REMARK  Name = 352876
REMARK  13 active torsions:
REMARK  status: ('A' for Active; 'I' for Inactive)
REMARK    1  A    between atoms: O_6  and  C_12
REMARK    2  A    between atoms: O_6  and  C_20
REMARK    3  A    between atoms: C_9  and  O_13
REMARK    4  A    between atoms: C_10  and  C_21
REMARK    5  A    between atoms: O_13  and  C_23
REMARK    6  A    between atoms: C_14  and  C_21
REMARK    7  A    between atoms: C_15  and  O_16
REMARK    8  A    between atoms: O_16  and  C_22
REMARK    9  A    between atoms: C_18  and  O_19
REMARK   10  A    between atoms: O_19  and  C_25
REMARK   11  A    between atoms: C_21  and  C_24
REMARK   12  A    between atoms: C_23  and  C_26
REMARK   13  A    between atoms: C_26  and  O_27
REMARK                            x       y       z     vdW  Elec       q    Type
REMARK                         _______ _______ _______ _____ _____    ______ ____
ROOT
ATOM      1  C   UNL     1       1.964  -0.649   0.000  0.00  0.00    +0.466 C 
ATOM      2  O   UNL     1       2.845  -1.863   0.000  0.00  0.00    -0.453 OA
ATOM      3  C   UNL     1       4.272  -1.400   0.000  0.00  0.00    +0.167 A 
ATOM      4  C   UNL     1       5.571  -2.150   0.000  0.00  0.00    +0.057 A 
ATOM      5  C   UNL     1       6.870  -1.400   0.000  0.00  0.00    +0.005 A 
ATOM     20  C   UNL     1       6.870   0.101   0.000  0.00  0.00    +0.128 A 
ATOM     26  C   UNL     1       5.571   0.851   0.000  0.00  0.00    +0.095 A 
ATOM     27  C   UNL     1       4.272   0.101   0.000  0.00  0.00    +0.170 A 
ATOM     28  O   UNL     1       2.845   0.564   0.000  0.00  0.00    -0.452 OA
ENDROOT
BRANCH   5   6
ATOM      6  C   UNL     1       8.169  -2.150   0.000  0.00  0.00    +0.050 C 
ATOM      7  C   UNL     1       9.468  -1.400   0.000  0.00  0.00    +0.017 C 
BRANCH   6   8
ATOM      8  C   UNL     1       8.169  -3.650   0.000  0.00  0.00    -0.033 A 
ATOM      9  C   UNL     1       9.468  -4.399   0.000  0.00  0.00    +0.054 A 
ATOM     10  C   UNL     1       9.468  -5.899   0.000  0.00  0.00    +0.165 A 
ATOM     13  C   UNL     1       8.169  -6.649   0.000  0.00  0.00    +0.204 A 
ATOM     16  C   UNL     1       6.870  -5.899   0.000  0.00  0.00    +0.165 A 
ATOM     19  C   UNL     1       6.870  -4.399   0.000  0.00  0.00    +0.054 A 
BRANCH  10  11
ATOM     11  O   UNL     1      10.767  -6.649   0.000  0.00  0.00    -0.491 OA
ATOM     12  C   UNL     1      12.066  -5.899   0.000  0.00  0.00    +0.277 C 
ENDBRANCH  10  11
BRANCH  13  14
ATOM     14  O   UNL     1       8.169  -8.149   0.000  0.00  0.00    -0.488 OA
ATOM     15  C   UNL     1       9.468  -8.899   0.000  0.00  0.00    +0.277 C 
ENDBRANCH  13  14
BRANCH  16  17
ATOM     17  O   UNL     1       5.571  -6.649   0.000  0.00  0.00    -0.491 OA
ATOM     18  C   UNL     1       4.272  -5.899   0.000  0.00  0.00    +0.277 C 
ENDBRANCH  16  17
ENDBRANCH   6   8
ENDBRANCH   5   6
BRANCH  20  21
ATOM     21  O   UNL     1       8.169   0.851   0.000  0.00  0.00    -0.489 OA
BRANCH  21  22
ATOM     22  C   UNL     1       8.169   2.350   0.000  0.00  0.00    +0.256 C 
BRANCH  22  23
ATOM     23  C   UNL     1       6.870   3.100   0.000  0.00  0.00    +0.196 C 
BRANCH  23  24
ATOM     24  O   UNL     1       5.571   2.350   0.000  0.00  0.00    -0.392 OA
ATOM     25  H   UNL     1       4.731   2.836   0.000  0.00  0.00    +0.210 HD
ENDBRANCH  23  24
ENDBRANCH  22  23
ENDBRANCH  21  22
ENDBRANCH  20  21
TORSDOF 9