REMARK  Name = 316157
REMARK  9 active torsions:
REMARK  status: ('A' for Active; 'I' for Inactive)
REMARK    1  A    between atoms: C_13  and  O_18
REMARK    2  A    between atoms: C_14  and  O_17
REMARK    3  A    between atoms: C_15  and  N_19
REMARK    4  A    between atoms: N_19  and  C_20
REMARK    5  A    between atoms: C_20  and  C_21
REMARK    6  A    between atoms: C_21  and  N_22
REMARK    7  A    between atoms: N_22  and  C_23
REMARK    8  A    between atoms: C_23  and  C_24
REMARK    9  A    between atoms: C_24  and  O_25
REMARK                            x       y       z     vdW  Elec       q    Type
REMARK                         _______ _______ _______ _____ _____    ______ ____
ROOT
ATOM      1  C   UNL     1      -8.121  -8.555   0.000  0.00  0.00    +0.001 A 
ATOM      2  C   UNL     1      -8.121 -10.055   0.000  0.00  0.00    +0.001 A 
ATOM      3  C   UNL     1      -6.822 -10.805   0.000  0.00  0.00    +0.012 A 
ATOM      4  C   UNL     1      -5.523 -10.055   0.000  0.00  0.00    +0.033 A 
ATOM      5  C   UNL     1      -4.224 -10.805   0.000  0.00  0.00    +0.198 C 
ATOM      6  O   UNL     1      -4.224 -12.305   0.000  0.00  0.00    -0.286 OA
ATOM      7  C   UNL     1      -2.925 -10.055   0.000  0.00  0.00    +0.078 A 
ATOM      8  C   UNL     1      -1.626 -10.805   0.000  0.00  0.00    +0.130 A 
ATOM     11  C   UNL     1      -0.327 -10.055   0.000  0.00  0.00    +0.072 A 
ATOM     12  C   UNL     1      -0.327  -8.555   0.000  0.00  0.00    +0.073 A 
ATOM     23  C   UNL     1      -1.626  -7.805   0.000  0.00  0.00    +0.149 A 
ATOM     26  C   UNL     1      -2.925  -8.555   0.000  0.00  0.00    +0.080 A 
ATOM     27  C   UNL     1      -4.224  -7.805   0.000  0.00  0.00    +0.198 C 
ATOM     28  O   UNL     1      -4.224  -6.305   0.000  0.00  0.00    -0.286 OA
ATOM     29  C   UNL     1      -5.523  -8.555   0.000  0.00  0.00    +0.033 A 
ATOM     30  C   UNL     1      -6.822  -7.805   0.000  0.00  0.00    +0.012 A 
ENDROOT
BRANCH   8   9
ATOM      9  O   UNL     1      -1.626 -12.305   0.000  0.00  0.00    -0.506 OA
ATOM     10  H   UNL     1      -2.437 -12.773   0.000  0.00  0.00    +0.292 HD
ENDBRANCH   8   9
BRANCH  12  13
ATOM     13  N   UNL     1       0.973  -7.805   0.000  0.00  0.00    -0.340 N 
ATOM     14  H   UNL     1       1.825  -8.297   0.000  0.00  0.00    +0.146 HD
BRANCH  13  15
ATOM     15  C   UNL     1       0.973  -6.305   0.000  0.00  0.00    +0.116 C 
BRANCH  15  16
ATOM     16  C   UNL     1      -0.327  -5.555   0.000  0.00  0.00    +0.099 C 
BRANCH  16  17
ATOM     17  N   UNL     1      -0.327  -4.055   0.000  0.00  0.00    -0.312 NA
ATOM     18  H   UNL     1       0.557  -3.545   0.000  0.00  0.00    +0.122 HD
BRANCH  17  19
ATOM     19  C   UNL     1      -1.626  -3.305   0.000  0.00  0.00    +0.108 C 
BRANCH  19  20
ATOM     20  C   UNL     1      -2.925  -4.055   0.000  0.00  0.00    +0.171 C 
BRANCH  20  21
ATOM     21  O   UNL     1      -4.224  -3.305   0.000  0.00  0.00    -0.394 OA
ATOM     22  H   UNL     1      -4.224  -2.335   0.000  0.00  0.00    +0.209 HD
ENDBRANCH  20  21
ENDBRANCH  19  20
ENDBRANCH  17  19
ENDBRANCH  16  17
ENDBRANCH  15  16
ENDBRANCH  13  15
ENDBRANCH  12  13
BRANCH  23  24
ATOM     24  O   UNL     1      -1.626  -6.305   0.000  0.00  0.00    -0.504 OA
ATOM     25  H   UNL     1      -0.814  -5.836   0.000  0.00  0.00    +0.292 HD
ENDBRANCH  23  24
TORSDOF 9