REMARK  Name = 132791
REMARK  13 active torsions:
REMARK  status: ('A' for Active; 'I' for Inactive)
REMARK    1  A    between atoms: O_8  and  C_16
REMARK    2  A    between atoms: O_8  and  C_34
REMARK    3  A    between atoms: C_10  and  C_34
REMARK    4  A    between atoms: C_10  and  O_36
REMARK    5  A    between atoms: C_10  and  C_37
REMARK    6  A    between atoms: C_10  and  C_38
REMARK    7  A    between atoms: C_11  and  O_32
REMARK    8  A    between atoms: C_12  and  C_33
REMARK    9  A    between atoms: C_13  and  O_30
REMARK   10  A    between atoms: C_19  and  C_31
REMARK   11  A    between atoms: C_20  and  O_28
REMARK   12  A    between atoms: C_27  and  C_29
REMARK   13  A    between atoms: C_38  and  C_39
REMARK                            x       y       z     vdW  Elec       q    Type
REMARK                         _______ _______ _______ _____ _____    ______ ____
ROOT
ATOM      1  O   UNL     1       0.750   5.250   0.000  0.00  0.00    -0.290 OA
ATOM      2  C   UNL     1       2.049   4.500   0.000  0.00  0.00    +0.185 C 
ATOM      3  C   UNL     1       2.049   3.000   0.000  0.00  0.00    +0.048 C 
ATOM      4  C   UNL     1       3.348   2.250   0.000  0.00  0.00    -0.065 C 
ATOM      5  C   UNL     1       3.348   0.750   0.000  0.00  0.00    +0.039 C 
ATOM      6  C   UNL     1       4.647   3.000   0.000  0.00  0.00    +0.028 C 
ATOM      7  C   UNL     1       5.946   2.250   0.000  0.00  0.00    +0.053 C 
ATOM      8  C   UNL     1       7.245   3.000   0.000  0.00  0.00    +0.186 C 
ATOM      9  C   UNL     1       7.245   4.500   0.000  0.00  0.00    +0.047 C 
ATOM     10  C   UNL     1       6.491   6.000   0.000  0.00  0.00    +0.174 C 
ATOM     11  O   UNL     1       7.373   7.213   0.000  0.00  0.00    -0.346 OA
ATOM     12  C   UNL     1       5.946   6.750   0.000  0.00  0.00    +0.198 C 
ATOM     15  C   UNL     1       7.245   7.500   0.000  0.00  0.00    +0.177 C 
ATOM     18  C   UNL     1       8.544   6.750   0.000  0.00  0.00    +0.028 C 
ATOM     19  C   UNL     1       9.843   7.500   0.000  0.00  0.00    +0.011 C 
ATOM     20  C   UNL     1       5.946   5.250   0.000  0.00  0.00    +0.072 C 
ATOM     21  C   UNL     1       8.544   5.250   0.000  0.00  0.00    +0.059 C 
ATOM     22  C   UNL     1       9.843   4.500   0.000  0.00  0.00    +0.288 C 
ATOM     23  C   UNL     1       9.843   3.000   0.000  0.00  0.00    +0.349 C 
ATOM     24  O   UNL     1      11.142   2.250   0.000  0.00  0.00    -0.247 OA
ATOM     34  O   UNL     1       8.544   2.250   0.000  0.00  0.00    -0.458 OA
ATOM     35  C   UNL     1       4.647   4.500   0.000  0.00  0.00    +0.016 C 
ATOM     36  C   UNL     1       4.647   6.000   0.000  0.00  0.00    +0.015 C 
ATOM     37  C   UNL     1       3.348   5.250   0.000  0.00  0.00    +0.191 C 
ENDROOT
BRANCH  12  13
ATOM     13  O   UNL     1       4.647   7.500   0.000  0.00  0.00    -0.362 OA
ATOM     14  H   UNL     1       4.647   8.470   0.000  0.00  0.00    +0.213 HD
ENDBRANCH  12  13
BRANCH  15  16
ATOM     16  O   UNL     1       7.245   9.000   0.000  0.00  0.00    -0.386 OA
ATOM     17  H   UNL     1       8.085   9.485   0.000  0.00  0.00    +0.210 HD
ENDBRANCH  15  16
BRANCH  37  38
ATOM     38  O   UNL     1       3.348   6.750   0.000  0.00  0.00    -0.383 OA
ATOM     39  H   UNL     1       4.188   7.235   0.000  0.00  0.00    +0.210 HD
ENDBRANCH  37  38
BRANCH  22  25
ATOM     25  O   UNL     1      11.142   5.250   0.000  0.00  0.00    -0.448 OA
BRANCH  25  26
ATOM     26  C   UNL     1      12.291   4.286   0.000  0.00  0.00    +0.340 C 
ATOM     27  O   UNL     1      12.031   2.809   0.000  0.00  0.00    -0.248 OA
BRANCH  26  28
ATOM     28  C   UNL     1      13.701   4.799   0.000  0.00  0.00    +0.159 C 
ATOM     31  C   UNL     1      14.665   5.948   0.000  0.00  0.00    +0.053 C 
BRANCH  28  29
ATOM     29  C   UNL     1      14.850   3.835   0.000  0.00  0.00    +0.042 C 
ATOM     30  C   UNL     1      16.259   4.348   0.000  0.00  0.00    +0.007 C 
ENDBRANCH  28  29
BRANCH  28  32
ATOM     32  O   UNL     1      13.188   6.208   0.000  0.00  0.00    -0.378 OA
ATOM     33  H   UNL     1      13.811   6.951   0.000  0.00  0.00    +0.211 HD
ENDBRANCH  28  32
ENDBRANCH  26  28
ENDBRANCH  25  26
ENDBRANCH  22  25
TORSDOF 8