REMARK  Name = 163501
REMARK  4 active torsions:
REMARK  status: ('A' for Active; 'I' for Inactive)
REMARK    1  A    between atoms: CA_6  and  C_8
REMARK    2  A    between atoms: CA_6  and  N_10
REMARK    3  A    between atoms: CA_6  and  C_11
REMARK    4  A    between atoms: C_11  and  OXT_13
REMARK                            x       y       z     vdW  Elec       q    Type
REMARK                         _______ _______ _______ _____ _____    ______ ____
ROOT
ATOM      5  CA  UNL     1       4.206   4.487   0.000  0.00  0.00    +0.205 C 
ENDROOT
BRANCH   5   4
ATOM      1 CL   UNL     1      -0.398   3.651   0.000  0.00  0.00    -0.063 Cl
ATOM      2  C   UNL     1       1.029   3.188   0.000  0.00  0.00    +0.149 C 
ATOM      3  C   UNL     1       2.242   4.069   0.000  0.00  0.00    +0.120 C 
ATOM      4  C   UNL     1       3.456   3.188   0.000  0.00  0.00    +0.239 C 
ATOM     13  O   UNL     1       2.992   1.761   0.000  0.00  0.00    -0.387 OA
ATOM     14  N   UNL     1       1.492   1.761   0.000  0.00  0.00    -0.077 NA
ENDBRANCH   5   4
BRANCH   5  10
ATOM     10  N   UNL     1       4.206   5.987   0.000  0.00  0.00    -0.315 NA
ATOM     11  H1  UNL     1       3.323   6.497   0.000  0.00  0.00    +0.119 HD
ATOM     12  H2  UNL     1       5.089   6.497   0.000  0.00  0.00    +0.119 HD
ENDBRANCH   5  10
BRANCH   5   6
ATOM      6  C   UNL     1       5.706   4.487   0.000  0.00  0.00    +0.325 C 
ATOM      9  O   UNL     1       6.456   5.786   0.000  0.00  0.00    -0.249 OA
BRANCH   6   7
ATOM      7  OXT UNL     1       6.456   3.188   0.000  0.00  0.00    -0.479 OA
ATOM      8  HXT UNL     1       5.988   2.376   0.000  0.00  0.00    +0.295 HD
ENDBRANCH   6   7
ENDBRANCH   5   6
TORSDOF 4