REMARK  Name = 286193
REMARK  6 active torsions:
REMARK  status: ('A' for Active; 'I' for Inactive)
REMARK    1  A    between atoms: C_1  and  C_7
REMARK    2  A    between atoms: C_2  and  C_12
REMARK    3  A    between atoms: C_2  and  O_14
REMARK    4  A    between atoms: C_8  and  C_9
REMARK    5  A    between atoms: C_10  and  O_16
REMARK    6  A    between atoms: C_11  and  O_15
REMARK                            x       y       z     vdW  Elec       q    Type
REMARK                         _______ _______ _______ _____ _____    ______ ____
ROOT
ATOM     10  C   UNL     1       0.098  -0.709   0.000  0.00  0.00    +0.205 C 
ATOM     11  C   UNL     1       1.099  -1.825   0.000  0.00  0.00    +0.181 C 
ATOM     14  C   UNL     1       0.346  -3.123   0.000  0.00  0.00    +0.177 C 
ATOM     17  C   UNL     1      -1.120  -2.808   0.000  0.00  0.00    +0.176 C 
ATOM     21  O   UNL     1      -1.274  -1.315   0.000  0.00  0.00    -0.359 OA
ENDROOT
BRANCH  10   9
ATOM      6  C   UNL     1       0.165   3.172   0.000  0.00  0.00    +0.133 A 
ATOM      7  C   UNL     1       1.631   2.857   0.000  0.00  0.00    +0.080 A 
ATOM      8  S   UNL     1       1.785   1.365   0.000  0.00  0.00    -0.077 S 
ATOM      9  C   UNL     1       0.413   0.758   0.000  0.00  0.00    +0.110 A 
ATOM     22  N   UNL     1      -0.588   1.875   0.000  0.00  0.00    -0.237 NA
BRANCH   6   1
ATOM      1  C   UNL     1      -0.442   4.544   0.000  0.00  0.00    +0.260 C 
ATOM      2  O   UNL     1       0.442   5.756   0.000  0.00  0.00    -0.269 OA
ATOM      3  N   UNL     1      -1.934   4.704   0.000  0.00  0.00    -0.324 N 
ATOM      4  H   UNL     1      -2.514   3.909   0.000  0.00  0.00    +0.145 HD
ATOM      5  H   UNL     1      -2.332   5.604   0.000  0.00  0.00    +0.145 HD
ENDBRANCH   6   1
ENDBRANCH  10   9
BRANCH  11  12
ATOM     12  O   UNL     1       2.591  -1.672   0.000  0.00  0.00    -0.386 OA
ATOM     13  H   UNL     1       3.160  -2.458   0.000  0.00  0.00    +0.210 HD
ENDBRANCH  11  12
BRANCH  14  15
ATOM     15  O   UNL     1       0.953  -4.495   0.000  0.00  0.00    -0.386 OA
ATOM     16  H   UNL     1       0.381  -5.278   0.000  0.00  0.00    +0.210 HD
ENDBRANCH  14  15
BRANCH  17  18
ATOM     18  C   UNL     1      -2.237  -3.809   0.000  0.00  0.00    +0.190 C 
BRANCH  18  19
ATOM     19  O   UNL     1      -1.929  -5.277   0.000  0.00  0.00    -0.392 OA
ATOM     20  H   UNL     1      -2.651  -5.924   0.000  0.00  0.00    +0.210 HD
ENDBRANCH  18  19
ENDBRANCH  17  18
TORSDOF 6