REMARK  Name = 336628
REMARK  3 active torsions:
REMARK  status: ('A' for Active; 'I' for Inactive)
REMARK    1  A    between atoms: C_1  and  N_7
REMARK    2  A    between atoms: C_8  and  C_10
REMARK    3  A    between atoms: C_17  and  O_18
REMARK                            x       y       z     vdW  Elec       q    Type
REMARK                         _______ _______ _______ _____ _____    ______ ____
ROOT
ATOM      5  C   UNL     1      -3.451  -7.359   0.000  0.00  0.00    +0.160 A 
ATOM      6  C   UNL     1      -3.451  -5.859   0.000  0.00  0.00    +0.210 A 
ATOM      9  N   UNL     1      -4.750  -5.109   0.000  0.00  0.00    -0.306 N 
ATOM     10  H   UNL     1      -4.750  -4.124   0.000  0.00  0.00    +0.171 HD
ATOM     11  C   UNL     1      -6.050  -5.859   0.000  0.00  0.00    +0.161 A 
ATOM     12  S   UNL     1      -7.348  -5.109   0.000  0.00  0.00    -0.013 S 
ATOM     13  N   UNL     1      -6.050  -7.359   0.000  0.00  0.00    -0.302 N 
ATOM     14  H   UNL     1      -6.902  -7.851   0.000  0.00  0.00    +0.171 HD
ATOM     15  C   UNL     1      -4.750  -8.109   0.000  0.00  0.00    +0.268 A 
ATOM     16  O   UNL     1      -4.750  -9.609   0.000  0.00  0.00    -0.267 OA
ENDROOT
BRANCH   5   4
ATOM      2  N   UNL     1      -0.853  -7.359   0.000  0.00  0.00    -0.281 N 
ATOM      3  H   UNL     1      -0.853  -6.374   0.000  0.00  0.00    +0.155 HD
ATOM      4  C   UNL     1      -2.152  -8.109   0.000  0.00  0.00    +0.259 C 
ATOM     17  O   UNL     1      -2.152  -9.609   0.000  0.00  0.00    -0.269 OA
BRANCH   2   1
ATOM      1  C   UNL     1       0.446  -8.109   0.000  0.00  0.00    +0.034 A 
ATOM     18  C   UNL     1       0.446  -9.609   0.000  0.00  0.00    +0.023 A 
ATOM     19  C   UNL     1       1.745 -10.359   0.000  0.00  0.00    +0.002 A 
ATOM     20  C   UNL     1       3.044  -9.609   0.000  0.00  0.00    +0.000 A 
ATOM     21  C   UNL     1       3.044  -8.109   0.000  0.00  0.00    +0.002 A 
ATOM     22  C   UNL     1       1.745  -7.359   0.000  0.00  0.00    +0.023 A 
ENDBRANCH   2   1
ENDBRANCH   5   4
BRANCH   6   7
ATOM      7  O   UNL     1      -2.152  -5.109   0.000  0.00  0.00    -0.493 OA
ATOM      8  H   UNL     1      -1.341  -5.577   0.000  0.00  0.00    +0.294 HD
ENDBRANCH   6   7
TORSDOF 3