REMARK  Name = NSC 400978
REMARK  6 active torsions:
REMARK  status: ('A' for Active; 'I' for Inactive)
REMARK    1  A    between atoms: C_3  and  O_4
REMARK    2  A    between atoms: C_3  and  C_5
REMARK    3  A    between atoms: C_9  and  C_10
REMARK    4  A    between atoms: C_12  and  O_13
REMARK    5  A    between atoms: C_14  and  C_15
REMARK    6  A    between atoms: C_14  and  C_16
REMARK                            x       y       z     vdW  Elec       q    Type
REMARK                         _______ _______ _______ _____ _____    ______ ____
ROOT
ATOM      1  O   UNL     1      -5.521  -0.750   0.000  0.00  0.00    -0.289 OA
ATOM      2  C   UNL     1      -5.521  -2.250   0.000  0.00  0.00    +0.195 C 
ATOM      3  C   UNL     1      -6.819  -3.000   0.000  0.00  0.00    +0.135 C 
ATOM      6  C   UNL     1      -8.297  -3.261   0.000  0.00  0.00    +0.051 C 
ATOM      7  C   UNL     1      -6.819  -4.500   0.000  0.00  0.00    +0.028 C 
ATOM      8  C   UNL     1      -8.319  -4.500   0.000  0.00  0.00    +0.015 C 
ATOM      9  C   UNL     1      -7.569  -5.799   0.000  0.00  0.00    +0.015 C 
ATOM     10  C   UNL     1      -5.521  -5.250   0.000  0.00  0.00    -0.057 C 
ATOM     11  C   UNL     1      -5.521  -6.750   0.000  0.00  0.00    +0.040 C 
ATOM     12  C   UNL     1      -4.221  -4.500   0.000  0.00  0.00    -0.008 C 
ATOM     13  C   UNL     1      -2.795  -4.963   0.000  0.00  0.00    +0.155 C 
ATOM     16  C   UNL     1      -1.913  -3.750   0.000  0.00  0.00    +0.014 C 
ATOM     17  C   UNL     1      -0.798  -4.754   0.000  0.00  0.00    +0.018 C 
ATOM     18  C   UNL     1      -0.798  -2.746   0.000  0.00  0.00    +0.018 C 
ATOM     19  C   UNL     1      -2.795  -2.537   0.000  0.00  0.00    -0.006 C 
ATOM     20  C   UNL     1      -4.221  -3.000   0.000  0.00  0.00    +0.023 C 
ENDROOT
BRANCH   3   4
ATOM      4  O   UNL     1      -7.333  -1.591   0.000  0.00  0.00    -0.380 OA
ATOM      5  H   UNL     1      -6.709  -0.847   0.000  0.00  0.00    +0.211 HD
ENDBRANCH   3   4
BRANCH  13  14
ATOM     14  O   UNL     1      -1.496  -5.713   0.000  0.00  0.00    -0.386 OA
ATOM     15  H   UNL     1      -1.496  -6.683   0.000  0.00  0.00    +0.210 HD
ENDBRANCH  13  14
TORSDOF 2