REMARK  Name = NSC 38270
REMARK  41 active torsions:
REMARK  status: ('A' for Active; 'I' for Inactive)
REMARK    1  A    between atoms: C_1  and  C_2
REMARK    2  A    between atoms: C_4  and  O_5
REMARK    3  A    between atoms: O_5  and  C_6
REMARK    4  A    between atoms: C_10  and  O_11
REMARK    5  A    between atoms: C_14  and  O_15
REMARK    6  A    between atoms: C_18  and  O_19
REMARK    7  A    between atoms: O_19  and  C_20
REMARK    8  A    between atoms: C_22  and  C_41
REMARK    9  A    between atoms: C_23  and  O_24
REMARK   10  A    between atoms: O_24  and  C_25
REMARK   11  A    between atoms: C_27  and  C_34
REMARK   12  A    between atoms: C_28  and  O_29
REMARK   13  A    between atoms: O_29  and  C_30
REMARK   14  A    between atoms: C_31  and  O_32
REMARK   15  A    between atoms: C_36  and  O_37
REMARK   16  A    between atoms: O_37  and  C_38
REMARK   17  A    between atoms: C_38  and  C_40
REMARK   18  A    between atoms: C_48  and  C_49
REMARK   19  A    between atoms: C_49  and  O_50
REMARK   20  A    between atoms: C_49  and  C_52
REMARK   21  A    between atoms: O_50  and  C_51
REMARK   22  A    between atoms: C_52  and  C_54
REMARK   23  A    between atoms: C_54  and  O_55
REMARK   24  A    between atoms: C_54  and  C_57
REMARK   25  A    between atoms: C_57  and  O_58
REMARK   26  A    between atoms: C_57  and  C_60
REMARK   27  A    between atoms: C_62  and  O_63
REMARK   28  A    between atoms: O_63  and  C_64
REMARK   29  A    between atoms: C_66  and  C_88
REMARK   30  A    between atoms: C_67  and  O_68
REMARK   31  A    between atoms: C_70  and  O_71
REMARK   32  A    between atoms: O_71  and  C_72
REMARK   33  A    between atoms: C_74  and  C_86
REMARK   34  A    between atoms: C_75  and  O_76
REMARK   35  A    between atoms: O_76  and  C_77
REMARK   36  A    between atoms: C_77  and  C_79
REMARK   37  A    between atoms: C_79  and  C_80
REMARK   38  A    between atoms: C_79  and  C_81
REMARK   39  A    between atoms: C_82  and  O_83
REMARK   40  A    between atoms: C_82  and  C_85
REMARK   41  A    between atoms: C_90  and  O_91
REMARK                            x       y       z     vdW  Elec       q    Type
REMARK                         _______ _______ _______ _____ _____    ______ ____
ROOT
ATOM      6  C   UNL     1      13.265  16.025   0.000  0.00  0.00    +0.198 C 
ATOM      7  C   UNL     1      11.966  16.775   0.000  0.00  0.00    +0.196 C 
ATOM      8  O   UNL     1      11.966  18.275   0.000  0.00  0.00    -0.289 OA
ATOM      9  C   UNL     1      10.667  16.025   0.000  0.00  0.00    +0.065 A 
ATOM     10  C   UNL     1       9.368  16.775   0.000  0.00  0.00    +0.139 A 
ATOM     13  C   UNL     1       8.069  16.025   0.000  0.00  0.00    +0.066 A 
ATOM     14  C   UNL     1       6.770  16.775   0.000  0.00  0.00    +0.132 A 
ATOM     17  C   UNL     1       5.471  16.025   0.000  0.00  0.00    +0.091 A 
ATOM     18  C   UNL     1       5.471  14.525   0.000  0.00  0.00    +0.128 A 
ATOM     43  C   UNL     1       6.770  13.775   0.000  0.00  0.00    +0.054 A 
ATOM     44  C   UNL     1       8.069  14.525   0.000  0.00  0.00    -0.007 A 
ATOM     45  C   UNL     1       9.368  13.775   0.000  0.00  0.00    +0.013 A 
ATOM     46  C   UNL     1      10.667  14.525   0.000  0.00  0.00    -0.032 A 
ATOM     47  C   UNL     1      11.966  13.775   0.000  0.00  0.00    +0.045 C 
ATOM     48  C   UNL     1      13.265  14.525   0.000  0.00  0.00    +0.066 C 
ENDROOT
BRANCH  10  11
ATOM     11  O   UNL     1       9.368  18.275   0.000  0.00  0.00    -0.505 OA
ATOM     12  H   UNL     1       8.069  19.025   0.000  0.00  0.00    +0.292 HD
ENDBRANCH  10  11
BRANCH  14  15
ATOM     15  O   UNL     1       6.770  18.275   0.000  0.00  0.00    -0.506 OA
ATOM     16  H   UNL     1       5.471  19.025   0.000  0.00  0.00    +0.292 HD
ENDBRANCH  14  15
BRANCH   6   5
ATOM      5  O   UNL     1      14.564  16.775   0.000  0.00  0.00    -0.340 OA
BRANCH   5   4
ATOM      1  C   UNL     1      17.162  21.275   0.000  0.00  0.00    +0.041 C 
ATOM      2  C   UNL     1      15.863  20.525   0.000  0.00  0.00    +0.149 C 
ATOM      3  O   UNL     1      15.863  19.025   0.000  0.00  0.00    -0.346 OA
ATOM      4  C   UNL     1      14.564  18.275   0.000  0.00  0.00    +0.254 C 
ATOM     61  C   UNL     1      13.265  19.025   0.000  0.00  0.00    +0.095 C 
ATOM     62  C   UNL     1      13.265  20.525   0.000  0.00  0.00    +0.157 C 
ATOM     90  C   UNL     1      14.564  21.275   0.000  0.00  0.00    +0.172 C 
BRANCH  90  91
ATOM     91  O   UNL     1      14.564  22.775   0.000  0.00  0.00    -0.387 OA
ATOM     92  H   UNL     1      15.863  23.525   0.000  0.00  0.00    +0.210 HD
ENDBRANCH  90  91
BRANCH  62  63
ATOM     63  O   UNL     1      11.966  21.275   0.000  0.00  0.00    -0.345 OA
BRANCH  63  64
ATOM     64  C   UNL     1      11.966  22.775   0.000  0.00  0.00    +0.254 C 
ATOM     65  O   UNL     1      10.667  23.525   0.000  0.00  0.00    -0.346 OA
ATOM     66  C   UNL     1      10.667  25.025   0.000  0.00  0.00    +0.149 C 
ATOM     67  C   UNL     1      11.966  25.775   0.000  0.00  0.00    +0.172 C 
ATOM     70  C   UNL     1      13.265  25.025   0.000  0.00  0.00    +0.157 C 
ATOM     88  C   UNL     1       9.368  25.775   0.000  0.00  0.00    +0.041 C 
ATOM     89  C   UNL     1      13.265  23.525   0.000  0.00  0.00    +0.095 C 
BRANCH  67  68
ATOM     68  O   UNL     1      11.966  27.275   0.000  0.00  0.00    -0.387 OA
ATOM     69  H   UNL     1      10.667  28.025   0.000  0.00  0.00    +0.210 HD
ENDBRANCH  67  68
BRANCH  70  71
ATOM     71  O   UNL     1      14.564  25.775   0.000  0.00  0.00    -0.345 OA
BRANCH  71  72
ATOM     72  C   UNL     1      14.564  27.275   0.000  0.00  0.00    +0.254 C 
ATOM     73  O   UNL     1      15.863  28.025   0.000  0.00  0.00    -0.345 OA
ATOM     74  C   UNL     1      15.863  29.525   0.000  0.00  0.00    +0.162 C 
ATOM     75  C   UNL     1      14.564  30.275   0.000  0.00  0.00    +0.236 C 
ATOM     82  C   UNL     1      13.265  29.525   0.000  0.00  0.00    +0.107 C 
ATOM     85  C   UNL     1      11.788  29.264   0.000  0.00  0.00    +0.045 C 
ATOM     86  C   UNL     1      17.162  30.275   0.000  0.00  0.00    +0.042 C 
ATOM     87  C   UNL     1      13.265  28.025   0.000  0.00  0.00    +0.099 C 
BRANCH  82  83
ATOM     83  O   UNL     1      12.752  30.934   0.000  0.00  0.00    -0.385 OA
ATOM     84  H   UNL     1      11.275  31.195   0.000  0.00  0.00    +0.210 HD
ENDBRANCH  82  83
BRANCH  75  76
ATOM     76  O   UNL     1      14.564  31.775   0.000  0.00  0.00    -0.456 OA
BRANCH  76  77
ATOM     77  C   UNL     1      15.863  32.525   0.000  0.00  0.00    +0.310 C 
ATOM     78  O   UNL     1      17.162  31.775   0.000  0.00  0.00    -0.251 OA
BRANCH  77  79
ATOM     79  C   UNL     1      15.863  34.025   0.000  0.00  0.00    +0.092 C 
ATOM     80  C   UNL     1      14.564  34.775   0.000  0.00  0.00    +0.019 C 
ATOM     81  C   UNL     1      17.162  34.775   0.000  0.00  0.00    +0.019 C 
ENDBRANCH  77  79
ENDBRANCH  76  77
ENDBRANCH  75  76
ENDBRANCH  71  72
ENDBRANCH  70  71
ENDBRANCH  63  64
ENDBRANCH  62  63
ENDBRANCH   5   4
ENDBRANCH   6   5
BRANCH  18  19
ATOM     19  O   UNL     1       4.172  13.775   0.000  0.00  0.00    -0.463 OA
BRANCH  19  20
ATOM     20  C   UNL     1       2.873  14.525   0.000  0.00  0.00    +0.311 C 
ATOM     21  O   UNL     1       1.574  13.775   0.000  0.00  0.00    -0.336 OA
ATOM     22  C   UNL     1       0.275  14.525   0.000  0.00  0.00    +0.152 C 
ATOM     23  C   UNL     1       0.275  16.025   0.000  0.00  0.00    +0.190 C 
ATOM     36  C   UNL     1       1.574  16.775   0.000  0.00  0.00    +0.214 C 
ATOM     41  C   UNL     1      -1.025  13.775   0.000  0.00  0.00    +0.041 C 
ATOM     42  C   UNL     1       2.873  16.025   0.000  0.00  0.00    +0.122 C 
BRANCH  23  24
ATOM     24  O   UNL     1      -1.025  16.775   0.000  0.00  0.00    -0.342 OA
BRANCH  24  25
ATOM     25  C   UNL     1      -2.324  16.025   0.000  0.00  0.00    +0.254 C 
ATOM     26  O   UNL     1      -2.324  14.525   0.000  0.00  0.00    -0.346 OA
ATOM     27  C   UNL     1      -3.623  13.775   0.000  0.00  0.00    +0.149 C 
ATOM     28  C   UNL     1      -4.922  14.525   0.000  0.00  0.00    +0.175 C 
ATOM     31  C   UNL     1      -4.922  16.025   0.000  0.00  0.00    +0.150 C 
ATOM     34  C   UNL     1      -3.623  12.275   0.000  0.00  0.00    +0.041 C 
ATOM     35  C   UNL     1      -3.623  16.775   0.000  0.00  0.00    +0.095 C 
BRANCH  28  29
ATOM     29  O   UNL     1      -6.221  13.775   0.000  0.00  0.00    -0.375 OA
ATOM     30  C   UNL     1      -7.520  14.525   0.000  0.00  0.00    +0.194 C 
ENDBRANCH  28  29
BRANCH  31  32
ATOM     32  O   UNL     1      -6.221  16.775   0.000  0.00  0.00    -0.389 OA
ATOM     33  H   UNL     1      -6.221  18.275   0.000  0.00  0.00    +0.210 HD
ENDBRANCH  31  32
ENDBRANCH  24  25
ENDBRANCH  23  24
BRANCH  36  37
ATOM     37  O   UNL     1       1.574  18.275   0.000  0.00  0.00    -0.459 OA
BRANCH  37  38
ATOM     38  C   UNL     1       0.275  19.025   0.000  0.00  0.00    +0.304 C 
ATOM     39  O   UNL     1      -1.025  18.275   0.000  0.00  0.00    -0.251 OA
ATOM     40  C   UNL     1       0.275  20.525   0.000  0.00  0.00    +0.136 C 
ENDBRANCH  37  38
ENDBRANCH  36  37
ENDBRANCH  19  20
ENDBRANCH  18  19
BRANCH  48  49
ATOM     49  C   UNL     1      14.564  13.775   0.000  0.00  0.00    +0.193 C 
BRANCH  49  50
ATOM     50  O   UNL     1      15.863  14.525   0.000  0.00  0.00    -0.372 OA
ATOM     51  C   UNL     1      17.162  13.775   0.000  0.00  0.00    +0.194 C 
ENDBRANCH  49  50
BRANCH  49  52
ATOM     52  C   UNL     1      14.564  12.275   0.000  0.00  0.00    +0.193 C 
ATOM     53  O   UNL     1      15.863  11.525   0.000  0.00  0.00    -0.292 OA
BRANCH  52  54
ATOM     54  C   UNL     1      13.265  11.525   0.000  0.00  0.00    +0.211 C 
BRANCH  54  55
ATOM     55  O   UNL     1      11.966  12.275   0.000  0.00  0.00    -0.382 OA
ATOM     56  H   UNL     1      10.667  11.525   0.000  0.00  0.00    +0.210 HD
ENDBRANCH  54  55
BRANCH  54  57
ATOM     57  C   UNL     1      13.265  10.025   0.000  0.00  0.00    +0.147 C 
ATOM     60  C   UNL     1      14.564   9.274   0.000  0.00  0.00    +0.041 C 
BRANCH  57  58
ATOM     58  O   UNL     1      11.966   9.274   0.000  0.00  0.00    -0.389 OA
ATOM     59  H   UNL     1      11.966   7.774   0.000  0.00  0.00    +0.210 HD
ENDBRANCH  57  58
ENDBRANCH  54  57
ENDBRANCH  52  54
ENDBRANCH  49  52
ENDBRANCH  48  49
TORSDOF 29