REMARK  Name = NSC 359079
REMARK  7 active torsions:
REMARK  status: ('A' for Active; 'I' for Inactive)
REMARK    1  A    between atoms: N_28  and  C_29
REMARK    2  A    between atoms: C_30  and  O_31
REMARK    3  A    between atoms: C_32  and  O_33
REMARK    4  A    between atoms: C_34  and  O_35
REMARK    5  A    between atoms: O_35  and  C_36
REMARK    6  A    between atoms: C_37  and  C_38
REMARK    7  A    between atoms: C_38  and  O_39
REMARK                            x       y       z     vdW  Elec       q    Type
REMARK                         _______ _______ _______ _____ _____    ______ ____
ROOT
ATOM      1 CL   UNL     1      -2.442 -11.154   0.000  0.00  0.00    -0.081 Cl
ATOM      2  C   UNL     1      -2.285  -9.662   0.000  0.00  0.00    +0.065 A 
ATOM      3  C   UNL     1      -0.915  -9.052   0.000  0.00  0.00    +0.071 A 
ATOM      4  C   UNL     1      -0.758  -7.561   0.000  0.00  0.00    +0.010 A 
ATOM      5  C   UNL     1      -1.972  -6.679   0.000  0.00  0.00    +0.011 A 
ATOM      6  C   UNL     1      -3.342  -7.289   0.000  0.00  0.00    +0.002 A 
ATOM      7  C   UNL     1       0.709  -7.249   0.000  0.00  0.00    +0.023 A 
ATOM      8  C   UNL     1       1.459  -8.548   0.000  0.00  0.00    +0.077 A 
ATOM      9  C   UNL     1       2.959  -8.548   0.000  0.00  0.00    +0.073 A 
ATOM     10  C   UNL     1       3.709  -7.249   0.000  0.00  0.00    +0.023 A 
ATOM     11  C   UNL     1       5.176  -7.561   0.000  0.00  0.00    +0.010 A 
ATOM     12  C   UNL     1       5.333  -9.052   0.000  0.00  0.00    +0.066 A 
ATOM     13  C   UNL     1       6.703  -9.662   0.000  0.00  0.00    +0.065 A 
ATOM     14  C   UNL     1       7.917  -8.781   0.000  0.00  0.00    +0.022 A 
ATOM     15  C   UNL     1       7.760  -7.289   0.000  0.00  0.00    +0.002 A 
ATOM     16 CL   UNL     1       6.860 -11.154   0.000  0.00  0.00    -0.081 Cl
ATOM     17  C   UNL     1       6.390  -6.679   0.000  0.00  0.00    +0.011 A 
ATOM     18  C   UNL     1       2.959  -5.950   0.000  0.00  0.00    +0.062 A 
ATOM     19  C   UNL     1       3.422  -4.523   0.000  0.00  0.00    +0.260 A 
ATOM     20  O   UNL     1       4.849  -4.059   0.000  0.00  0.00    -0.267 OA
ATOM     21  N   UNL     1       2.209  -3.641   0.000  0.00  0.00    -0.289 N 
ATOM     22  H   UNL     1       2.209  -2.141   0.000  0.00  0.00    +0.172 HD
ATOM     23  C   UNL     1       0.995  -4.523   0.000  0.00  0.00    +0.260 A 
ATOM     24  O   UNL     1      -0.431  -4.059   0.000  0.00  0.00    -0.267 OA
ATOM     25  N   UNL     1       3.962  -9.662   0.000  0.00  0.00    -0.351 N 
ATOM     26  H   UNL     1       3.651 -11.130   0.000  0.00  0.00    +0.166 HD
ATOM     27  C   UNL     1       1.459  -5.950   0.000  0.00  0.00    +0.062 A 
ATOM     28  N   UNL     1       0.455  -9.662   0.000  0.00  0.00    -0.308 N 
ATOM     44  C   UNL     1      -3.499  -8.781   0.000  0.00  0.00    +0.022 A 
ENDROOT
BRANCH  28  29
ATOM     29  C   UNL     1       0.767 -11.130   0.000  0.00  0.00    +0.251 C 
ATOM     30  C   UNL     1      -0.348 -12.133   0.000  0.00  0.00    +0.195 C 
ATOM     33  C   UNL     1      -0.036 -13.601   0.000  0.00  0.00    +0.179 C 
ATOM     36  C   UNL     1       1.391 -14.064   0.000  0.00  0.00    +0.180 C 
ATOM     39  C   UNL     1       2.505 -13.060   0.000  0.00  0.00    +0.177 C 
ATOM     43  O   UNL     1       2.194 -11.593   0.000  0.00  0.00    -0.346 OA
BRANCH  30  31
ATOM     31  O   UNL     1      -1.774 -11.670   0.000  0.00  0.00    -0.385 OA
ATOM     32  H   UNL     1      -1.976 -10.721   0.000  0.00  0.00    +0.210 HD
ENDBRANCH  30  31
BRANCH  33  34
ATOM     34  O   UNL     1       1.079 -12.597   0.000  0.00  0.00    -0.386 OA
ATOM     35  H   UNL     1       2.001 -12.897   0.000  0.00  0.00    +0.210 HD
ENDBRANCH  33  34
BRANCH  36  37
ATOM     37  O   UNL     1       1.703 -15.531   0.000  0.00  0.00    -0.374 OA
ATOM     38  C   UNL     1       3.129 -15.995   0.000  0.00  0.00    +0.194 C 
ENDBRANCH  36  37
BRANCH  39  40
ATOM     40  C   UNL     1       3.932 -13.524   0.000  0.00  0.00    +0.190 C 
BRANCH  40  41
ATOM     41  O   UNL     1       4.244 -14.991   0.000  0.00  0.00    -0.392 OA
ATOM     42  H   UNL     1       3.523 -15.640   0.000  0.00  0.00    +0.210 HD
ENDBRANCH  40  41
ENDBRANCH  39  40
ENDBRANCH  28  29
TORSDOF 6