REMARK  Name = NSC 44175
REMARK  4 active torsions:
REMARK  status: ('A' for Active; 'I' for Inactive)
REMARK    1  A    between atoms: C_3  and  C_4
REMARK    2  A    between atoms: C_10  and  O_11
REMARK    3  A    between atoms: C_13  and  C_14
REMARK    4  A    between atoms: C_21  and  O_22
REMARK                            x       y       z     vdW  Elec       q    Type
REMARK                         _______ _______ _______ _____ _____    ______ ____
ROOT
ATOM      1  O   UNL     1      -6.770  -4.774   0.000  0.00  0.00    -0.283 OA
ATOM      2  C   UNL     1      -5.471  -5.524   0.000  0.00  0.00    +0.232 C 
ATOM      3  C   UNL     1      -5.471  -7.024   0.000  0.00  0.00    +0.078 C 
ATOM     10  C   UNL     1      -4.172  -7.774   0.000  0.00  0.00    +0.176 C 
ATOM     13  C   UNL     1      -2.873  -7.024   0.000  0.00  0.00    +0.232 C 
ATOM     14  C   UNL     1      -2.873  -5.524   0.000  0.00  0.00    +0.078 C 
ATOM     21  O   UNL     1      -1.573  -7.774   0.000  0.00  0.00    -0.283 OA
ATOM     22  C   UNL     1      -4.172  -4.774   0.000  0.00  0.00    +0.176 C 
ENDROOT
BRANCH   3   4
ATOM      4  C   UNL     1      -6.770  -7.774   0.000  0.00  0.00    -0.010 A 
ATOM      5  C   UNL     1      -8.069  -7.024   0.000  0.00  0.00    +0.009 A 
ATOM      6  C   UNL     1      -9.368  -7.774   0.000  0.00  0.00    +0.001 A 
ATOM      7  C   UNL     1      -9.368  -9.274   0.000  0.00  0.00    +0.000 A 
ATOM      8  C   UNL     1      -8.069 -10.025   0.000  0.00  0.00    +0.001 A 
ATOM      9  C   UNL     1      -6.770  -9.274   0.000  0.00  0.00    +0.009 A 
ENDBRANCH   3   4
BRANCH  14  15
ATOM     15  C   UNL     1      -1.574  -4.774   0.000  0.00  0.00    -0.010 A 
ATOM     16  C   UNL     1      -1.574  -3.275   0.000  0.00  0.00    +0.009 A 
ATOM     17  C   UNL     1      -0.275  -2.525   0.000  0.00  0.00    +0.001 A 
ATOM     18  C   UNL     1       1.025  -3.275   0.000  0.00  0.00    +0.000 A 
ATOM     19  C   UNL     1       1.025  -4.774   0.000  0.00  0.00    +0.001 A 
ATOM     20  C   UNL     1      -0.275  -5.524   0.000  0.00  0.00    +0.009 A 
ENDBRANCH  14  15
BRANCH  10  11
ATOM     11  O   UNL     1      -4.172  -9.274   0.000  0.00  0.00    -0.503 OA
ATOM     12  H   UNL     1      -4.983  -9.743   0.000  0.00  0.00    +0.292 HD
ENDBRANCH  10  11
BRANCH  22  23
ATOM     23  O   UNL     1      -4.172  -3.275   0.000  0.00  0.00    -0.503 OA
ATOM     24  H   UNL     1      -3.360  -2.806   0.000  0.00  0.00    +0.292 HD
ENDBRANCH  22  23
TORSDOF 4