REMARK  Name = NSC 50393
REMARK  1 active torsions:
REMARK  status: ('A' for Active; 'I' for Inactive)
REMARK    1  A    between atoms: C_11  and  C_12
REMARK                            x       y       z     vdW  Elec       q    Type
REMARK                         _______ _______ _______ _____ _____    ______ ____
ROOT
ATOM      1  O   UNL     1      -6.221   1.226   0.000  0.00  0.00    -0.483 OA
ATOM      2  C   UNL     1      -7.520   1.976   0.000  0.00  0.00    +0.132 A 
ATOM      3  C   UNL     1      -7.520   3.475   0.000  0.00  0.00    +0.046 A 
ATOM      4  C   UNL     1      -8.819   4.226   0.000  0.00  0.00    +0.004 A 
ATOM      5  C   UNL     1     -10.118   3.475   0.000  0.00  0.00    +0.001 A 
ATOM      6  C   UNL     1     -10.118   1.976   0.000  0.00  0.00    +0.015 A 
ATOM      7  C   UNL     1      -8.819   1.226   0.000  0.00  0.00    +0.059 A 
ATOM      8  C   UNL     1      -8.819  -0.275   0.000  0.00  0.00    +0.170 C 
ATOM      9  C   UNL     1      -7.520  -1.025   0.000  0.00  0.00    +0.129 C 
ATOM     10  O   UNL     1     -10.118  -1.025   0.000  0.00  0.00    -0.292 OA
ATOM     11  C   UNL     1      -6.221  -0.275   0.000  0.00  0.00    +0.211 C 
ENDROOT
BRANCH  11  12
ATOM     12  C   UNL     1      -4.922  -1.025   0.000  0.00  0.00    -0.007 A 
ATOM     13  C   UNL     1      -4.922  -2.525   0.000  0.00  0.00    +0.007 A 
ATOM     14  C   UNL     1      -3.623  -3.275   0.000  0.00  0.00    +0.000 A 
ATOM     15  C   UNL     1      -2.324  -2.525   0.000  0.00  0.00    +0.000 A 
ATOM     16  C   UNL     1      -2.324  -1.025   0.000  0.00  0.00    +0.000 A 
ATOM     17  C   UNL     1      -3.623  -0.275   0.000  0.00  0.00    +0.007 A 
ENDBRANCH  11  12
TORSDOF 1