REMARK  Name = NSC 51001
REMARK  27 active torsions:
REMARK  status: ('A' for Active; 'I' for Inactive)
REMARK    1  A    between atoms: C_8  and  C_9
REMARK    2  A    between atoms: C_13  and  O_14
REMARK    3  A    between atoms: O_14  and  C_15
REMARK    4  A    between atoms: C_15  and  C_16
REMARK    5  A    between atoms: C_18  and  O_19
REMARK    6  A    between atoms: O_19  and  C_20
REMARK    7  A    between atoms: C_21  and  O_27
REMARK    8  A    between atoms: C_22  and  C_23
REMARK    9  A    between atoms: C_23  and  C_24
REMARK   10  A    between atoms: O_27  and  C_28
REMARK   11  A    between atoms: C_29  and  O_30
REMARK   12  A    between atoms: C_31  and  N_32
REMARK   13  A    between atoms: N_32  and  C_33
REMARK   14  A    between atoms: N_32  and  C_34
REMARK   15  A    between atoms: C_35  and  O_38
REMARK   16  A    between atoms: C_36  and  C_37
REMARK   17  A    between atoms: O_38  and  C_39
REMARK   18  A    between atoms: C_41  and  O_42
REMARK   19  A    between atoms: C_41  and  C_43
REMARK   20  A    between atoms: C_44  and  O_45
REMARK   21  A    between atoms: O_45  and  C_46
REMARK   22  A    between atoms: C_46  and  C_47
REMARK   23  A    between atoms: C_47  and  C_48
REMARK   24  A    between atoms: C_48  and  C_49
REMARK   25  A    between atoms: C_48  and  C_50
REMARK   26  A    between atoms: C_52  and  C_53
REMARK   27  A    between atoms: C_58  and  C_59
REMARK                            x       y       z     vdW  Elec       q    Type
REMARK                         _______ _______ _______ _____ _____    ______ ____
ROOT
ATOM     27  O   UNL     1       9.665   4.899   0.000  0.00  0.00    -0.343 OA
ENDROOT
BRANCH  27  21
ATOM      1  O   UNL     1       2.431   6.175   0.000  0.00  0.00    -0.292 OA
ATOM      2  C   UNL     1       3.730   5.425   0.000  0.00  0.00    +0.159 C 
ATOM      3  C   UNL     1       3.990   3.948   0.000  0.00  0.00    +0.045 C 
ATOM      4  C   UNL     1       2.723   3.145   0.000  0.00  0.00    +0.010 C 
ATOM      5  C   UNL     1       3.640   1.958   0.000  0.00  0.00    +0.171 C 
ATOM      6  C   UNL     1       2.890   0.658   0.000  0.00  0.00    +0.155 C 
ATOM      7  C   UNL     1       4.039  -0.306   0.000  0.00  0.00    +0.079 C 
ATOM      8  C   UNL     1       5.188   0.658   0.000  0.00  0.00    +0.176 C 
ATOM      9  C   UNL     1       5.448   2.136   0.000  0.00  0.00    +0.052 C 
ATOM     10  O   UNL     1       5.938  -0.640   0.000  0.00  0.00    -0.461 OA
ATOM     11  C   UNL     1       7.347  -0.128   0.000  0.00  0.00    +0.311 C 
ATOM     12  C   UNL     1       7.087   1.350   0.000  0.00  0.00    +0.167 C 
ATOM     13  C   UNL     1       8.354   2.152   0.000  0.00  0.00    +0.218 C 
ATOM     18  C   UNL     1       7.438   3.340   0.000  0.00  0.00    +0.188 C 
ATOM     21  C   UNL     1       8.188   4.639   0.000  0.00  0.00    +0.157 C 
ATOM     22  C   UNL     1       7.039   5.603   0.000  0.00  0.00    +0.028 C 
ATOM     26  C   UNL     1       5.890   4.639   0.000  0.00  0.00    +0.017 C 
ATOM     58  O   UNL     1       8.646  -0.877   0.000  0.00  0.00    -0.251 OA
ATOM     59  O   UNL     1       2.140   1.958   0.000  0.00  0.00    -0.364 OA
ATOM     60  C   UNL     1       5.140   5.938   0.000  0.00  0.00    +0.057 C 
ATOM     61  C   UNL     1       5.653   7.348   0.000  0.00  0.00    +0.016 C 
BRANCH  18  19
ATOM     19  O   UNL     1       5.997   3.758   0.000  0.00  0.00    -0.374 OA
ATOM     20  C   UNL     1       4.915   2.719   0.000  0.00  0.00    +0.194 C 
ENDBRANCH  18  19
BRANCH  13  14
ATOM     14  O   UNL     1       9.831   1.892   0.000  0.00  0.00    -0.458 OA
BRANCH  14  15
ATOM     15  C   UNL     1      11.133   3.443   0.000  0.00  0.00    +0.304 C 
ATOM     16  C   UNL     1      10.620   4.853   0.000  0.00  0.00    +0.136 C 
ATOM     17  O   UNL     1      12.610   3.183   0.000  0.00  0.00    -0.251 OA
ENDBRANCH  14  15
ENDBRANCH  13  14
BRANCH  22  23
ATOM     23  C   UNL     1       7.039   7.103   0.000  0.00  0.00    +0.077 C 
BRANCH  23  24
ATOM     24  C   UNL     1       5.285   8.116   0.000  0.00  0.00    +0.223 C 
ATOM     25  O   UNL     1       3.986   7.366   0.000  0.00  0.00    -0.301 OA
ENDBRANCH  23  24
ENDBRANCH  22  23
ENDBRANCH  27  21
BRANCH  27  28
ATOM     28  C   UNL     1      10.178   6.309   0.000  0.00  0.00    +0.281 C 
ATOM     29  C   UNL     1      11.655   6.569   0.000  0.00  0.00    +0.190 C 
ATOM     32  C   UNL     1      12.168   7.979   0.000  0.00  0.00    +0.121 C 
ATOM     36  C   UNL     1      11.204   9.128   0.000  0.00  0.00    +0.169 C 
ATOM     37  C   UNL     1       9.727   8.868   0.000  0.00  0.00    +0.149 C 
ATOM     38  C   UNL     1      10.691   7.719   0.000  0.00  0.00    +0.041 C 
ATOM     57  O   UNL     1       9.214   7.458   0.000  0.00  0.00    -0.343 OA
BRANCH  32  33
ATOM     33  N   UNL     1      13.645   8.239   0.000  0.00  0.00    -0.301 NA
ATOM     34  C   UNL     1      14.158   9.649   0.000  0.00  0.00    +0.105 C 
ATOM     35  C   UNL     1      14.610   7.090   0.000  0.00  0.00    +0.105 C 
ENDBRANCH  32  33
BRANCH  29  30
ATOM     30  O   UNL     1      10.691   7.719   0.000  0.00  0.00    -0.385 OA
ATOM     31  H   UNL     1      11.023   8.630   0.000  0.00  0.00    +0.210 HD
ENDBRANCH  29  30
BRANCH  36  39
ATOM     39  O   UNL     1      11.717  10.538   0.000  0.00  0.00    -0.344 OA
BRANCH  39  40
ATOM     40  C   UNL     1      10.753  11.687   0.000  0.00  0.00    +0.254 C 
ATOM     41  C   UNL     1       9.276  11.426   0.000  0.00  0.00    +0.099 C 
ATOM     42  C   UNL     1       8.312  12.575   0.000  0.00  0.00    +0.107 C 
ATOM     45  C   UNL     1       9.789  12.836   0.000  0.00  0.00    +0.045 C 
ATOM     46  C   UNL     1       8.825  13.985   0.000  0.00  0.00    +0.236 C 
ATOM     54  C   UNL     1      10.302  14.245   0.000  0.00  0.00    +0.162 C 
ATOM     55  C   UNL     1      10.815  15.655   0.000  0.00  0.00    +0.042 C 
ATOM     56  O   UNL     1      11.266  13.096   0.000  0.00  0.00    -0.345 OA
BRANCH  42  43
ATOM     43  O   UNL     1       6.834  12.315   0.000  0.00  0.00    -0.385 OA
ATOM     44  H   UNL     1       6.211  13.058   0.000  0.00  0.00    +0.210 HD
ENDBRANCH  42  43
BRANCH  46  47
ATOM     47  O   UNL     1       7.860  15.134   0.000  0.00  0.00    -0.456 OA
BRANCH  47  48
ATOM     48  C   UNL     1       8.373  16.544   0.000  0.00  0.00    +0.308 C 
ATOM     53  O   UNL     1       9.851  16.804   0.000  0.00  0.00    -0.251 OA
BRANCH  48  49
ATOM     49  C   UNL     1       7.409  17.693   0.000  0.00  0.00    +0.123 C 
BRANCH  49  50
ATOM     50  C   UNL     1       5.932  17.432   0.000  0.00  0.00    -0.007 C 
ATOM     51  C   UNL     1       4.968  18.581   0.000  0.00  0.00    +0.008 C 
ATOM     52  C   UNL     1       5.419  16.023   0.000  0.00  0.00    +0.008 C 
ENDBRANCH  49  50
ENDBRANCH  48  49
ENDBRANCH  47  48
ENDBRANCH  46  47
ENDBRANCH  39  40
ENDBRANCH  36  39
ENDBRANCH  27  28
TORSDOF 16