REMARK  Name = NSC 365793
REMARK  9 active torsions:
REMARK  status: ('A' for Active; 'I' for Inactive)
REMARK    1  A    between atoms: C_3  and  O_4
REMARK    2  A    between atoms: C_5  and  C_6
REMARK    3  A    between atoms: C_6  and  C_7
REMARK    4  A    between atoms: C_6  and  C_13
REMARK    5  A    between atoms: C_7  and  C_8
REMARK    6  A    between atoms: C_8  and  C_9
REMARK    7  A    between atoms: C_10  and  C_11
REMARK    8  A    between atoms: C_10  and  C_12
REMARK    9  A    between atoms: C_17  and  C_18
REMARK                            x       y       z     vdW  Elec       q    Type
REMARK                         _______ _______ _______ _____ _____    ______ ____
ROOT
ATOM      1  O   UNL     1       2.244   5.948   0.000  0.00  0.00    -0.284 OA
ATOM      2  C   UNL     1       2.995   4.650   0.000  0.00  0.00    +0.223 C 
ATOM      3  C   UNL     1       4.495   4.652   0.000  0.00  0.00    +0.171 C 
ATOM      6  C   UNL     1       5.247   3.353   0.000  0.00  0.00    +0.047 C 
ATOM     15  C   UNL     1       4.498   2.053   0.000  0.00  0.00    +0.186 C 
ATOM     16  O   UNL     1       5.249   0.755   0.000  0.00  0.00    -0.287 OA
ATOM     17  C   UNL     1       2.998   2.052   0.000  0.00  0.00    +0.058 C 
ATOM     18  C   UNL     1       2.247   3.350   0.000  0.00  0.00    +0.004 C 
ATOM     19  C   UNL     1       0.747   3.349   0.000  0.00  0.00    +0.048 C 
ENDROOT
BRANCH   3   4
ATOM      4  O   UNL     1       5.244   5.951   0.000  0.00  0.00    -0.503 OA
ATOM      5  H   UNL     1       6.181   5.952   0.000  0.00  0.00    +0.292 HD
ENDBRANCH   3   4
BRANCH   6   7
ATOM      7  C   UNL     1       6.747   3.355   0.000  0.00  0.00    +0.024 C 
ATOM     14  C   UNL     1       7.495   4.654   0.000  0.00  0.00    +0.013 C 
BRANCH   7   8
ATOM      8  C   UNL     1       7.498   2.056   0.000  0.00  0.00    +0.012 C 
BRANCH   8   9
ATOM      9  C   UNL     1       8.975   2.318   0.000  0.00  0.00    +0.028 C 
BRANCH   9  10
ATOM     10  C   UNL     1       9.940   1.170   0.000  0.00  0.00    -0.028 C 
ATOM     11  C   UNL     1       9.429  -0.240   0.000  0.00  0.00    -0.080 C 
ATOM     12  C   UNL     1      10.394  -1.388   0.000  0.00  0.00    +0.038 C 
ATOM     13  C   UNL     1       7.952  -0.502   0.000  0.00  0.00    +0.038 C 
ENDBRANCH   9  10
ENDBRANCH   8   9
ENDBRANCH   7   8
ENDBRANCH   6   7
TORSDOF 5