REMARK  Name = NSC 38010
REMARK  16 active torsions:
REMARK  status: ('A' for Active; 'I' for Inactive)
REMARK    1  A    between atoms: C_2  and  C_3
REMARK    2  A    between atoms: C_3  and  C_4
REMARK    3  A    between atoms: C_4  and  C_5
REMARK    4  A    between atoms: C_5  and  C_6
REMARK    5  A    between atoms: C_6  and  C_7
REMARK    6  A    between atoms: C_7  and  C_8
REMARK    7  A    between atoms: C_8  and  C_9
REMARK    8  A    between atoms: C_9  and  C_10
REMARK    9  A    between atoms: C_10  and  C_11
REMARK   10  A    between atoms: C_11  and  C_12
REMARK   11  A    between atoms: C_12  and  C_13
REMARK   12  A    between atoms: C_13  and  C_14
REMARK   13  A    between atoms: C_14  and  C_15
REMARK   14  A    between atoms: C_15  and  O_17
REMARK   15  A    between atoms: O_17  and  C_18
REMARK   16  A    between atoms: C_18  and  C_19
REMARK                            x       y       z     vdW  Elec       q    Type
REMARK                         _______ _______ _______ _____ _____    ______ ____
ROOT
ATOM      8  C   UNL     1       3.765   9.613   0.000  0.00  0.00    -0.000 C 
ENDROOT
BRANCH   8   7
ATOM      7  C   UNL     1       3.015   8.314   0.000  0.00  0.00    +0.000 C 
BRANCH   7   6
ATOM      6  C   UNL     1       3.765   7.015   0.000  0.00  0.00    +0.000 C 
BRANCH   6   5
ATOM      5  C   UNL     1       3.015   5.716   0.000  0.00  0.00    +0.000 C 
BRANCH   5   4
ATOM      4  C   UNL     1       3.765   4.417   0.000  0.00  0.00    +0.001 C 
BRANCH   4   3
ATOM      3  C   UNL     1       3.015   3.118   0.000  0.00  0.00    +0.007 C 
BRANCH   3   2
ATOM      1  C   UNL     1       0.633   4.331   0.000  0.00  0.00    +0.011 C 
ATOM      2  C   UNL     1       1.515   3.118   0.000  0.00  0.00    +0.012 C 
ATOM     20  C   UNL     1       0.633   1.904   0.000  0.00  0.00    -0.028 C 
ATOM     21  C   UNL     1      -0.793   2.368   0.000  0.00  0.00    -0.031 C 
ATOM     22  C   UNL     1      -0.793   3.868   0.000  0.00  0.00    +0.027 C 
ENDBRANCH   3   2
ENDBRANCH   4   3
ENDBRANCH   5   4
ENDBRANCH   6   5
ENDBRANCH   7   6
ENDBRANCH   8   7
BRANCH   8   9
ATOM      9  C   UNL     1       5.265   9.613   0.000  0.00  0.00    +0.000 C 
BRANCH   9  10
ATOM     10  C   UNL     1       6.015  10.912   0.000  0.00  0.00    +0.000 C 
BRANCH  10  11
ATOM     11  C   UNL     1       5.265  12.211   0.000  0.00  0.00    +0.000 C 
BRANCH  11  12
ATOM     12  C   UNL     1       6.015  13.510   0.000  0.00  0.00    +0.001 C 
BRANCH  12  13
ATOM     13  C   UNL     1       7.515  13.510   0.000  0.00  0.00    +0.011 C 
BRANCH  13  14
ATOM     14  C   UNL     1       8.265  12.211   0.000  0.00  0.00    +0.120 C 
BRANCH  14  15
ATOM     15  C   UNL     1       9.765  12.211   0.000  0.00  0.00    +0.307 C 
ATOM     16  O   UNL     1      10.515  13.510   0.000  0.00  0.00    -0.251 OA
BRANCH  15  17
ATOM     17  O   UNL     1      10.515  10.912   0.000  0.00  0.00    -0.465 OA
BRANCH  17  18
ATOM     18  C   UNL     1      12.015  10.912   0.000  0.00  0.00    +0.229 C 
ATOM     19  C   UNL     1      12.765  12.211   0.000  0.00  0.00    +0.048 C 
ENDBRANCH  17  18
ENDBRANCH  15  17
ENDBRANCH  14  15
ENDBRANCH  13  14
ENDBRANCH  12  13
ENDBRANCH  11  12
ENDBRANCH  10  11
ENDBRANCH   9  10
ENDBRANCH   8   9
TORSDOF 15