REMARK  Name = NSC 43338
REMARK  4 active torsions:
REMARK  status: ('A' for Active; 'I' for Inactive)
REMARK    1  A    between atoms: C_3  and  C_4
REMARK    2  A    between atoms: C_4  and  C_5
REMARK    3  A    between atoms: C_4  and  C_6
REMARK    4  A    between atoms: C_9  and  O_10
REMARK                            x       y       z     vdW  Elec       q    Type
REMARK                         _______ _______ _______ _____ _____    ______ ____
ROOT
ATOM      1  C   UNL     1      -0.745  -3.275   0.000  0.00  0.00    +0.055 A 
ATOM      2  C   UNL     1      -1.079  -4.738   0.000  0.00  0.00    +0.008 A 
ATOM      3  C   UNL     1      -0.143  -5.910   0.000  0.00  0.00    -0.045 A 
ATOM      7  C   UNL     1       1.357  -5.910   0.000  0.00  0.00    +0.007 A 
ATOM      8  C   UNL     1       2.292  -4.738   0.000  0.00  0.00    +0.049 A 
ATOM      9  C   UNL     1       1.958  -3.275   0.000  0.00  0.00    +0.164 A 
ATOM     12  C   UNL     1       0.607  -2.624   0.000  0.00  0.00    +0.220 A 
ATOM     13  O   UNL     1       0.607  -1.125   0.000  0.00  0.00    -0.284 OA
ENDROOT
BRANCH   3   4
ATOM      4  C   UNL     1      -0.794  -7.262   0.000  0.00  0.00    +0.013 C 
ATOM      5  C   UNL     1       0.051  -8.501   0.000  0.00  0.00    +0.012 C 
ATOM      6  C   UNL     1      -2.290  -7.374   0.000  0.00  0.00    +0.012 C 
ENDBRANCH   3   4
BRANCH   9  10
ATOM     10  O   UNL     1       3.131  -2.340   0.000  0.00  0.00    -0.503 OA
ATOM     11  H   UNL     1       4.003  -2.682   0.000  0.00  0.00    +0.292 HD
ENDBRANCH   9  10
TORSDOF 2