REMARK  Name = NSC 50132
REMARK  13 active torsions:
REMARK  status: ('A' for Active; 'I' for Inactive)
REMARK    1  A    between atoms: C_3  and  O_4
REMARK    2  A    between atoms: C_5  and  C_6
REMARK    3  A    between atoms: C_8  and  O_9
REMARK    4  A    between atoms: O_9  and  C_10
REMARK    5  A    between atoms: C_11  and  O_12
REMARK    6  A    between atoms: O_12  and  C_13
REMARK    7  A    between atoms: C_14  and  O_15
REMARK    8  A    between atoms: O_15  and  C_16
REMARK    9  A    between atoms: C_20  and  O_21
REMARK   10  A    between atoms: O_21  and  C_22
REMARK   11  A    between atoms: C_23  and  O_24
REMARK   12  A    between atoms: O_24  and  C_25
REMARK   13  A    between atoms: C_29  and  O_30
REMARK                            x       y       z     vdW  Elec       q    Type
REMARK                         _______ _______ _______ _____ _____    ______ ____
ROOT
ATOM      1  O   UNL     1      -6.149   1.917   0.000  0.00  0.00    -0.460 OA
ATOM      2  C   UNL     1      -6.149   0.416   0.000  0.00  0.00    +0.343 C 
ATOM      3  C   UNL     1      -7.575  -0.047   0.000  0.00  0.00    +0.205 C 
ATOM      6  C   UNL     1      -8.185  -1.417   0.000  0.00  0.00    +0.095 C 
ATOM     19  C   UNL     1      -9.677  -1.574   0.000  0.00  0.00    -0.030 A 
ATOM     20  C   UNL     1     -10.287  -2.944   0.000  0.00  0.00    +0.054 A 
ATOM     21  C   UNL     1     -11.779  -3.101   0.000  0.00  0.00    +0.162 A 
ATOM     24  C   UNL     1     -12.661  -1.888   0.000  0.00  0.00    +0.162 A 
ATOM     27  C   UNL     1     -12.051  -0.517   0.000  0.00  0.00    +0.053 A 
ATOM     28  C   UNL     1     -10.559  -0.361   0.000  0.00  0.00    -0.037 A 
ATOM     29  C   UNL     1      -9.949   1.010   0.000  0.00  0.00    +0.077 C 
ATOM     30  C   UNL     1      -8.457   1.167   0.000  0.00  0.00    +0.144 C 
ATOM     33  O   UNL     1      -4.935  -0.465   0.000  0.00  0.00    -0.247 OA
ATOM     34  C   UNL     1      -7.575   2.380   0.000  0.00  0.00    +0.270 C 
ENDROOT
BRANCH   6   7
ATOM      7  C   UNL     1      -7.304  -2.631   0.000  0.00  0.00    -0.029 A 
ATOM      8  C   UNL     1      -5.812  -2.474   0.000  0.00  0.00    +0.054 A 
ATOM      9  C   UNL     1      -4.930  -3.688   0.000  0.00  0.00    +0.165 A 
ATOM     12  C   UNL     1      -5.540  -5.058   0.000  0.00  0.00    +0.204 A 
ATOM     15  C   UNL     1      -7.032  -5.215   0.000  0.00  0.00    +0.165 A 
ATOM     18  C   UNL     1      -7.914  -4.001   0.000  0.00  0.00    +0.054 A 
BRANCH   9  10
ATOM     10  O   UNL     1      -3.438  -3.531   0.000  0.00  0.00    -0.491 OA
ATOM     11  C   UNL     1      -2.828  -2.160   0.000  0.00  0.00    +0.277 C 
ENDBRANCH   9  10
BRANCH  12  13
ATOM     13  O   UNL     1      -4.659  -6.271   0.000  0.00  0.00    -0.488 OA
ATOM     14  C   UNL     1      -5.269  -7.642   0.000  0.00  0.00    +0.277 C 
ENDBRANCH  12  13
BRANCH  15  16
ATOM     16  O   UNL     1      -7.642  -6.585   0.000  0.00  0.00    -0.491 OA
ATOM     17  C   UNL     1      -9.134  -6.742   0.000  0.00  0.00    +0.277 C 
ENDBRANCH  15  16
ENDBRANCH   6   7
BRANCH   3   4
ATOM      4  O   UNL     1      -6.572  -1.162   0.000  0.00  0.00    -0.374 OA
ATOM      5  H   UNL     1      -6.871  -2.084   0.000  0.00  0.00    +0.211 HD
ENDBRANCH   3   4
BRANCH  21  22
ATOM     22  O   UNL     1     -12.389  -4.471   0.000  0.00  0.00    -0.491 OA
ATOM     23  C   UNL     1     -13.881  -4.628   0.000  0.00  0.00    +0.277 C 
ENDBRANCH  21  22
BRANCH  24  25
ATOM     25  O   UNL     1     -14.152  -2.045   0.000  0.00  0.00    -0.491 OA
ATOM     26  C   UNL     1     -14.762  -3.415   0.000  0.00  0.00    +0.277 C 
ENDBRANCH  24  25
BRANCH  30  31
ATOM     31  O   UNL     1      -9.207   2.466   0.000  0.00  0.00    -0.381 OA
ATOM     32  H   UNL     1      -8.722   3.306   0.000  0.00  0.00    +0.210 HD
ENDBRANCH  30  31
TORSDOF 8