REMARK  Name = NSC 36508
REMARK  5 active torsions:
REMARK  status: ('A' for Active; 'I' for Inactive)
REMARK    1  A    between atoms: C_7  and  C_8
REMARK    2  A    between atoms: C_17  and  C_18
REMARK    3  A    between atoms: C_23  and  C_24
REMARK    4  A    between atoms: C_29  and  C_30
REMARK    5  A    between atoms: C_29  and  C_31
REMARK                            x       y       z     vdW  Elec       q    Type
REMARK                         _______ _______ _______ _____ _____    ______ ____
ROOT
ATOM      1  O   UNL     1      -0.912  -7.896   0.000  0.00  0.00    -0.251 OA
ATOM      2  C   UNL     1       0.387  -8.646   0.000  0.00  0.00    +0.310 C 
ATOM      3  O   UNL     1       1.687  -7.896   0.000  0.00  0.00    -0.464 OA
ATOM      4  C   UNL     1       1.687  -9.396   0.000  0.00  0.00    +0.242 C 
ATOM      5  C   UNL     1       2.986 -10.146   0.000  0.00  0.00    +0.041 C 
ATOM      6  C   UNL     1       3.297  -8.679   0.000  0.00  0.00    +0.017 C 
ATOM      7  C   UNL     1       4.724  -8.215   0.000  0.00  0.00    +0.062 C 
ATOM      8  C   UNL     1       3.609  -7.212   0.000  0.00  0.00    +0.022 C 
ATOM      9  C   UNL     1       5.839  -9.219   0.000  0.00  0.00    +0.143 C 
ATOM     10  O   UNL     1       7.265  -8.755   0.000  0.00  0.00    -0.297 OA
ATOM     11  C   UNL     1       5.527 -10.686   0.000  0.00  0.00    +0.082 C 
ATOM     12  C   UNL     1       5.036  -6.748   0.000  0.00  0.00    +0.128 C 
ATOM     13  C   UNL     1       6.462  -6.285   0.000  0.00  0.00    +0.260 C 
ATOM     14  C   UNL     1       6.774  -4.817   0.000  0.00  0.00    +0.340 C 
ATOM     15  O   UNL     1       8.201  -4.354   0.000  0.00  0.00    -0.248 OA
ATOM     16  O   UNL     1       5.660  -3.814   0.000  0.00  0.00    -0.454 OA
ATOM     17  C   UNL     1       4.233  -4.277   0.000  0.00  0.00    +0.218 C 
ATOM     23  C   UNL     1       3.921  -5.744   0.000  0.00  0.00    +0.042 C 
ATOM     24  C   UNL     1       2.806  -4.741   0.000  0.00  0.00    +0.018 C 
ATOM     25  C   UNL     1       2.494  -6.208   0.000  0.00  0.00    +0.014 C 
ATOM     26  O   UNL     1       6.151  -7.752   0.000  0.00  0.00    -0.351 OA
ATOM     27  C   UNL     1       2.183  -7.675   0.000  0.00  0.00    +0.006 C 
ATOM     28  C   UNL     1       4.100 -11.150   0.000  0.00  0.00    +0.040 C 
ATOM     29  C   UNL     1       3.490 -12.520   0.000  0.00  0.00    +0.068 C 
ATOM     30  C   UNL     1       4.982 -12.677   0.000  0.00  0.00    +0.041 C 
ATOM     31  C   UNL     1       3.333 -14.012   0.000  0.00  0.00    +0.041 C 
ATOM     32  O   UNL     1       1.998 -12.363   0.000  0.00  0.00    -0.369 OA
ATOM     33  C   UNL     1       1.687 -10.896   0.000  0.00  0.00    +0.140 C 
ATOM     34  C   UNL     1       0.387 -10.146   0.000  0.00  0.00    +0.152 C 
ENDROOT
BRANCH  17  18
ATOM     18  C   UNL     1       3.118  -3.273   0.000  0.00  0.00    +0.031 A 
ATOM     19  C   UNL     1       3.275  -1.782   0.000  0.00  0.00    +0.202 A 
ATOM     20  O   UNL     1       1.905  -1.172   0.000  0.00  0.00    -0.471 OA
ATOM     21  C   UNL     1       0.901  -2.286   0.000  0.00  0.00    +0.195 A 
ATOM     22  C   UNL     1       1.651  -3.585   0.000  0.00  0.00    +0.048 A 
ENDBRANCH  17  18
TORSDOF 1