REMARK  Name = NSC 5036
REMARK  3 active torsions:
REMARK  status: ('A' for Active; 'I' for Inactive)
REMARK    1  A    between atoms: N_2  and  C_3
REMARK    2  A    between atoms: N_5  and  C_6
REMARK    3  A    between atoms: N_10  and  C_11
REMARK                            x       y       z     vdW  Elec       q    Type
REMARK                         _______ _______ _______ _____ _____    ______ ____
ROOT
ATOM      1  C   UNL     1      -2.511  -3.816   0.000  0.00  0.00    +0.282 A 
ATOM      2  N   UNL     1      -3.810  -4.566   0.000  0.00  0.00    -0.262 N 
ATOM      3  C   UNL     1      -5.109  -3.816   0.000  0.00  0.00    +0.157 C 
ATOM      4  C   UNL     1      -3.810  -6.066   0.000  0.00  0.00    +0.333 A 
ATOM      5  N   UNL     1      -2.511  -6.816   0.000  0.00  0.00    -0.280 N 
ATOM      6  C   UNL     1      -2.511  -8.316   0.000  0.00  0.00    +0.155 C 
ATOM      7  C   UNL     1      -1.212  -6.066   0.000  0.00  0.00    +0.168 A 
ATOM      8  N   UNL     1       0.215  -6.529   0.000  0.00  0.00    -0.218 NA
ATOM      9  C   UNL     1       1.097  -5.316   0.000  0.00  0.00    +0.202 A 
ATOM     10  N   UNL     1       0.215  -4.102   0.000  0.00  0.00    -0.328 N 
ATOM     11  C   UNL     1       0.679  -2.675   0.000  0.00  0.00    +0.150 C 
ATOM     12  O   UNL     1      -5.109  -6.816   0.000  0.00  0.00    -0.246 OA
ATOM     13  C   UNL     1      -1.212  -4.566   0.000  0.00  0.00    +0.151 A 
ATOM     14  O   UNL     1      -2.511  -2.316   0.000  0.00  0.00    -0.265 OA
ENDROOT
TORSDOF 0