REMARK  Name = NSC 407306
REMARK  4 active torsions:
REMARK  status: ('A' for Active; 'I' for Inactive)
REMARK    1  A    between atoms: C_6  and  O_7
REMARK    2  A    between atoms: C_8  and  C_9
REMARK    3  A    between atoms: C_9  and  O_11
REMARK    4  A    between atoms: O_11  and  C_12
REMARK                            x       y       z     vdW  Elec       q    Type
REMARK                         _______ _______ _______ _____ _____    ______ ____
ROOT
ATOM      1  N   UNL     1       7.245   1.500   0.000  0.00  0.00    -0.293 NA
ATOM      2  C   UNL     1       5.946   0.750   0.000  0.00  0.00    +0.089 C 
ATOM      3  C   UNL     1       4.647   1.500   0.000  0.00  0.00    +0.007 C 
ATOM      4  C   UNL     1       3.348   0.750   0.000  0.00  0.00    +0.007 C 
ATOM      5  C   UNL     1       2.049   1.500   0.000  0.00  0.00    +0.032 C 
ATOM      6  C   UNL     1       2.049   3.000   0.000  0.00  0.00    +0.129 C 
ATOM      9  C   UNL     1       3.348   3.750   0.000  0.00  0.00    +0.130 C 
ATOM     14  C   UNL     1       4.647   3.000   0.000  0.00  0.00    +0.011 C 
ATOM     15  C   UNL     1       5.946   3.750   0.000  0.00  0.00    +0.030 C 
ATOM     16  C   UNL     1       8.544   0.750   0.000  0.00  0.00    +0.090 C 
ATOM     17  C   UNL     1       9.843   1.500   0.000  0.00  0.00    +0.053 C 
ATOM     18  C   UNL     1       9.843   3.000   0.000  0.00  0.00    -0.016 A 
ATOM     19  C   UNL     1       8.544   3.750   0.000  0.00  0.00    +0.038 A 
ATOM     20  N   UNL     1       8.856   5.217   0.000  0.00  0.00    -0.356 N 
ATOM     21  C   UNL     1      10.348   5.374   0.000  0.00  0.00    +0.047 A 
ATOM     22  C   UNL     1      11.230   6.588   0.000  0.00  0.00    +0.026 A 
ATOM     23  C   UNL     1      12.721   6.431   0.000  0.00  0.00    +0.002 A 
ATOM     24  C   UNL     1      13.332   5.060   0.000  0.00  0.00    +0.001 A 
ATOM     25  C   UNL     1      12.450   3.847   0.000  0.00  0.00    +0.010 A 
ATOM     26  H   UNL     1       7.852   6.332   0.000  0.00  0.00    +0.166 HD
ATOM     27  C   UNL     1      10.958   4.004   0.000  0.00  0.00    +0.003 A 
ATOM     28  C   UNL     1       7.245   3.000   0.000  0.00  0.00    +0.104 C 
ENDROOT
BRANCH   6   7
ATOM      7  O   UNL     1       0.750   3.750   0.000  0.00  0.00    -0.391 OA
ATOM      8  H   UNL     1       0.750   4.720   0.000  0.00  0.00    +0.210 HD
ENDBRANCH   6   7
BRANCH   9  10
ATOM     10  C   UNL     1       3.348   5.250   0.000  0.00  0.00    +0.313 C 
ATOM     11  O   UNL     1       4.647   6.000   0.000  0.00  0.00    -0.250 OA
BRANCH  10  12
ATOM     12  O   UNL     1       2.049   6.000   0.000  0.00  0.00    -0.468 OA
ATOM     13  C   UNL     1       2.049   7.500   0.000  0.00  0.00    +0.280 C 
ENDBRANCH  10  12
ENDBRANCH   9  10
TORSDOF 3