REMARK  Name = 41148
REMARK  14 active torsions:
REMARK  status: ('A' for Active; 'I' for Inactive)
REMARK    1  A    between atoms: C_1  and  O_23
REMARK    2  A    between atoms: C_2  and  O_21
REMARK    3  A    between atoms: C_3  and  O_26
REMARK    4  A    between atoms: C_6  and  C_7
REMARK    5  A    between atoms: C_9  and  C_28
REMARK    6  A    between atoms: C_11  and  O_17
REMARK    7  A    between atoms: C_14  and  O_19
REMARK    8  A    between atoms: C_15  and  O_25
REMARK    9  A    between atoms: O_17  and  C_18
REMARK   10  A    between atoms: O_19  and  C_20
REMARK   11  A    between atoms: O_21  and  C_22
REMARK   12  A    between atoms: O_23  and  C_24
REMARK   13  A    between atoms: O_26  and  C_27
REMARK   14  A    between atoms: C_28  and  O_30
REMARK                            x       y       z     vdW  Elec       q    Type
REMARK                         _______ _______ _______ _____ _____    ______ ____
ROOT
ATOM      9  C   UNL     1       1.574  -9.274   0.000  0.00  0.00    +0.004 A 
ATOM     10  C   UNL     1       0.275 -10.025   0.000  0.00  0.00    -0.002 A 
ATOM     11  C   UNL     1      -1.025  -9.274   0.000  0.00  0.00    +0.058 A 
ATOM     12  C   UNL     1      -2.324 -10.025   0.000  0.00  0.00    +0.162 A 
ATOM     15  C   UNL     1      -2.324 -11.525   0.000  0.00  0.00    +0.162 A 
ATOM     18  C   UNL     1      -1.025 -12.275   0.000  0.00  0.00    +0.061 A 
ATOM     19  C   UNL     1       0.275 -11.525   0.000  0.00  0.00    +0.028 A 
ATOM     20  C   UNL     1       1.574 -12.275   0.000  0.00  0.00    +0.125 A 
ATOM     23  C   UNL     1       2.873 -11.525   0.000  0.00  0.00    +0.061 A 
ATOM     24  C   UNL     1       2.873 -10.025   0.000  0.00  0.00    +0.071 A 
ENDROOT
BRANCH   9   8
ATOM      1  C   UNL     1       1.574  -4.774   0.000  0.00  0.00    +0.204 A 
ATOM      4  C   UNL     1       2.873  -5.524   0.000  0.00  0.00    +0.166 A 
ATOM      7  C   UNL     1       2.873  -7.024   0.000  0.00  0.00    +0.058 A 
ATOM      8  C   UNL     1       1.574  -7.774   0.000  0.00  0.00    -0.009 A 
ATOM     29  C   UNL     1       0.275  -7.024   0.000  0.00  0.00    +0.058 A 
ATOM     30  C   UNL     1       0.275  -5.524   0.000  0.00  0.00    +0.166 A 
BRANCH   1   2
ATOM      2  O   UNL     1       1.573  -3.275   0.000  0.00  0.00    -0.488 OA
ATOM      3  C   UNL     1       2.873  -2.525   0.000  0.00  0.00    +0.277 C 
ENDBRANCH   1   2
BRANCH   4   5
ATOM      5  O   UNL     1       4.172  -4.774   0.000  0.00  0.00    -0.491 OA
ATOM      6  C   UNL     1       5.471  -5.524   0.000  0.00  0.00    +0.277 C 
ENDBRANCH   4   5
BRANCH  30  31
ATOM     31  O   UNL     1      -1.025  -4.774   0.000  0.00  0.00    -0.491 OA
ATOM     32  C   UNL     1      -2.324  -5.524   0.000  0.00  0.00    +0.277 C 
ENDBRANCH  30  31
ENDBRANCH   9   8
BRANCH  12  13
ATOM     13  O   UNL     1      -3.623  -9.274   0.000  0.00  0.00    -0.491 OA
ATOM     14  C   UNL     1      -4.922 -10.025   0.000  0.00  0.00    +0.277 C 
ENDBRANCH  12  13
BRANCH  15  16
ATOM     16  O   UNL     1      -3.623 -12.275   0.000  0.00  0.00    -0.491 OA
ATOM     17  C   UNL     1      -4.922 -11.525   0.000  0.00  0.00    +0.277 C 
ENDBRANCH  15  16
BRANCH  20  21
ATOM     21  O   UNL     1       1.574 -13.775   0.000  0.00  0.00    -0.506 OA
ATOM     22  H   UNL     1       0.762 -14.243   0.000  0.00  0.00    +0.292 HD
ENDBRANCH  20  21
BRANCH  24  25
ATOM     25  C   UNL     1       4.172  -9.274   0.000  0.00  0.00    +0.338 C 
ATOM     28  O   UNL     1       5.471 -10.025   0.000  0.00  0.00    -0.245 OA
BRANCH  25  26
ATOM     26  O   UNL     1       4.172  -7.774   0.000  0.00  0.00    -0.477 OA
ATOM     27  H   UNL     1       4.983  -7.306   0.000  0.00  0.00    +0.295 HD
ENDBRANCH  25  26
ENDBRANCH  24  25
TORSDOF 9