REMARK  Name = 40275
REMARK  4 active torsions:
REMARK  status: ('A' for Active; 'I' for Inactive)
REMARK    1  A    between atoms: C_2  and  N_20
REMARK    2  A    between atoms: C_8  and  N_20
REMARK    3  A    between atoms: C_12  and  C_17
REMARK    4  A    between atoms: C_17  and  O_19
REMARK                            x       y       z     vdW  Elec       q    Type
REMARK                         _______ _______ _______ _____ _____    ______ ____
ROOT
ATOM      5  C   UNL     1       1.429  -8.026   0.000  0.00  0.00    +0.046 A 
ATOM      6  C   UNL     1       1.429  -9.526   0.000  0.00  0.00    +0.080 A 
ATOM     11  C   UNL     1       0.129 -10.276   0.000  0.00  0.00    +0.025 A 
ATOM     12  C   UNL     1      -1.170  -9.526   0.000  0.00  0.00    -0.017 A 
ATOM     13  C   UNL     1      -2.469 -10.276   0.000  0.00  0.00    +0.008 A 
ATOM     14  C   UNL     1      -3.768  -9.526   0.000  0.00  0.00    +0.001 A 
ATOM     15  C   UNL     1      -3.768  -8.026   0.000  0.00  0.00    +0.001 A 
ATOM     16  C   UNL     1      -2.469  -7.276   0.000  0.00  0.00    +0.008 A 
ATOM     17  C   UNL     1      -1.170  -8.026   0.000  0.00  0.00    -0.016 A 
ATOM     18  C   UNL     1       0.129  -7.276   0.000  0.00  0.00    +0.032 A 
ENDROOT
BRANCH   5   3
ATOM      3  N   UNL     1       2.728  -7.276   0.000  0.00  0.00    -0.314 N 
ATOM      4  H   UNL     1       3.580  -7.768   0.000  0.00  0.00    +0.152 HD
BRANCH   3   2
ATOM      1  C   UNL     1       1.429  -5.026   0.000  0.00  0.00    +0.023 A 
ATOM      2  C   UNL     1       2.728  -5.776   0.000  0.00  0.00    +0.031 A 
ATOM     19  C   UNL     1       4.027  -5.026   0.000  0.00  0.00    +0.023 A 
ATOM     20  C   UNL     1       4.027  -3.526   0.000  0.00  0.00    +0.002 A 
ATOM     21  C   UNL     1       2.728  -2.776   0.000  0.00  0.00    +0.000 A 
ATOM     22  C   UNL     1       1.429  -3.526   0.000  0.00  0.00    +0.002 A 
ENDBRANCH   3   2
ENDBRANCH   5   3
BRANCH   6   7
ATOM      7  C   UNL     1       2.728 -10.276   0.000  0.00  0.00    +0.339 C 
ATOM     10  O   UNL     1       4.027  -9.526   0.000  0.00  0.00    -0.245 OA
BRANCH   7   8
ATOM      8  O   UNL     1       2.728 -11.776   0.000  0.00  0.00    -0.477 OA
ATOM      9  H   UNL     1       1.916 -12.244   0.000  0.00  0.00    +0.295 HD
ENDBRANCH   7   8
ENDBRANCH   6   7
TORSDOF 4