REMARK  Name = 382059
REMARK  2 active torsions:
REMARK  status: ('A' for Active; 'I' for Inactive)
REMARK    1  A    between atoms: C_6  and  C_14
REMARK    2  A    between atoms: N_12  and  C_15
REMARK                            x       y       z     vdW  Elec       q    Type
REMARK                         _______ _______ _______ _____ _____    ______ ____
ROOT
ATOM      1  C   UNL     1       1.457   1.024   0.000  0.00  0.00    +0.156 A 
ATOM      2  N   UNL     1       2.339  -0.189   0.000  0.00  0.00    -0.251 NA
ATOM      3  C   UNL     1       3.766   0.274   0.000  0.00  0.00    +0.064 A 
ATOM      4  C   UNL     1       5.065  -0.476   0.000  0.00  0.00    +0.057 C 
ATOM      5  C   UNL     1       3.851  -1.357   0.000  0.00  0.00    +0.024 C 
ATOM      6  C   UNL     1       5.377  -1.943   0.000  0.00  0.00    +0.115 C 
ATOM      7  C   UNL     1       6.868  -2.100   0.000  0.00  0.00    +0.221 C 
ATOM      8  O   UNL     1       7.618  -3.399   0.000  0.00  0.00    -0.275 OA
ATOM      9  N   UNL     1       7.478  -0.730   0.000  0.00  0.00    -0.278 N 
ATOM     10  C   UNL     1       8.946  -0.418   0.000  0.00  0.00    +0.138 C 
ATOM     11  C   UNL     1       6.364   0.274   0.000  0.00  0.00    +0.022 C 
ATOM     12  C   UNL     1       6.364   1.774   0.000  0.00  0.00    -0.002 C 
ATOM     13  C   UNL     1       5.065   2.524   0.000  0.00  0.00    +0.073 C 
ATOM     14  C   UNL     1       3.766   1.774   0.000  0.00  0.00    +0.017 A 
ATOM     15  S   UNL     1       2.339   2.238   0.000  0.00  0.00    -0.080 S 
ENDROOT
TORSDOF 0