REMARK  Name = 408860
REMARK  5 active torsions:
REMARK  status: ('A' for Active; 'I' for Inactive)
REMARK    1  A    between atoms: C_2  and  C_15
REMARK    2  A    between atoms: C_5  and  C_13
REMARK    3  A    between atoms: C_7  and  N_19
REMARK    4  A    between atoms: C_8  and  N_18
REMARK    5  A    between atoms: C_15  and  O_17
REMARK                            x       y       z     vdW  Elec       q    Type
REMARK                         _______ _______ _______ _____ _____    ______ ____
ROOT
ATOM     10  C   UNL     1       2.407  -1.170   0.000  0.00  0.00    +0.249 C 
ATOM     11  N   UNL     1       2.407  -2.670   0.000  0.00  0.00    -0.281 N 
ATOM     12  H   UNL     1       1.555  -3.162   0.000  0.00  0.00    +0.155 HD
ATOM     22  O   UNL     1       1.108  -0.419   0.000  0.00  0.00    -0.270 OA
ENDROOT
BRANCH  10   7
ATOM      1  C   UNL     1       5.005   1.831   0.000  0.00  0.00    +0.016 A 
ATOM      2  C   UNL     1       3.706   1.081   0.000  0.00  0.00    +0.071 A 
ATOM      7  C   UNL     1       3.706  -0.419   0.000  0.00  0.00    +0.051 A 
ATOM      8  C   UNL     1       5.005  -1.170   0.000  0.00  0.00    +0.014 A 
ATOM      9  C   UNL     1       6.304  -0.419   0.000  0.00  0.00    +0.001 A 
ATOM     23  C   UNL     1       6.304   1.081   0.000  0.00  0.00    +0.001 A 
BRANCH   2   3
ATOM      3  C   UNL     1       2.407   1.831   0.000  0.00  0.00    +0.338 C 
ATOM      6  O   UNL     1       2.407   3.330   0.000  0.00  0.00    -0.245 OA
BRANCH   3   4
ATOM      4  O   UNL     1       1.108   1.081   0.000  0.00  0.00    -0.477 OA
ATOM      5  H   UNL     1       0.297   1.549   0.000  0.00  0.00    +0.295 HD
ENDBRANCH   3   4
ENDBRANCH   2   3
ENDBRANCH  10   7
BRANCH  11  13
ATOM     13  C   UNL     1       3.706  -3.420   0.000  0.00  0.00    +0.040 A 
ATOM     14  C   UNL     1       3.706  -4.920   0.000  0.00  0.00    +0.024 A 
ATOM     15  C   UNL     1       5.005  -5.670   0.000  0.00  0.00    +0.008 A 
ATOM     16  C   UNL     1       6.304  -4.920   0.000  0.00  0.00    +0.084 A 
ATOM     17  C   UNL     1       6.304  -3.420   0.000  0.00  0.00    +0.275 A 
ATOM     21  C   UNL     1       5.005  -2.670   0.000  0.00  0.00    +0.107 A 
BRANCH  17  18
ATOM     18  N   UNL     1       7.603  -2.670   0.000  0.00  0.00    +0.080 N 
ATOM     19  O   UNL     1       7.603  -1.170   0.000  0.00  0.00    +0.041 OA
ATOM     20  O   UNL     1       8.902  -3.420   0.000  0.00  0.00    -0.576 OA
ENDBRANCH  17  18
ENDBRANCH  11  13
TORSDOF 5