REMARK  Name = 40383
REMARK  2 active torsions:
REMARK  status: ('A' for Active; 'I' for Inactive)
REMARK    1  A    between atoms: C_12  and  N_17
REMARK    2  A    between atoms: N_17  and  C_18
REMARK                            x       y       z     vdW  Elec       q    Type
REMARK                         _______ _______ _______ _____ _____    ______ ____
ROOT
ATOM      1  N   UNL     1       0.750  -4.140   0.000  0.00  0.00    -0.220 NA
ATOM      2  C   UNL     1       0.750  -2.640   0.000  0.00  0.00    +0.225 A 
ATOM      3  N   UNL     1       2.049  -1.890   0.000  0.00  0.00    -0.216 NA
ATOM      4  C   UNL     1       3.348  -2.640   0.000  0.00  0.00    +0.161 A 
ATOM      5  C   UNL     1       3.348  -4.140   0.000  0.00  0.00    +0.079 A 
ATOM      6  C   UNL     1       4.775  -4.604   0.000  0.00  0.00    +0.147 A 
ATOM      7  N   UNL     1       5.656  -3.390   0.000  0.00  0.00    -0.180 NA
ATOM      8  N   UNL     1       4.775  -2.177   0.000  0.00  0.00    -0.260 N 
ATOM      9  H   UNL     1       5.238  -0.750   0.000  0.00  0.00    +0.191 HD
ATOM     10  C   UNL     1       2.049  -4.890   0.000  0.00  0.00    +0.139 A 
ATOM     11  N   UNL     1       2.049  -6.390   0.000  0.00  0.00    -0.286 N 
ATOM     12  C   UNL     1       0.750  -7.140   0.000  0.00  0.00    +0.137 C 
ENDROOT
BRANCH  11  13
ATOM     13  C   UNL     1       3.348  -7.140   0.000  0.00  0.00    +0.053 A 
ATOM     14  C   UNL     1       4.647  -6.390   0.000  0.00  0.00    +0.134 A 
ATOM     15  N   UNL     1       5.946  -7.140   0.000  0.00  0.00    -0.261 NA
ATOM     16  C   UNL     1       5.946  -8.640   0.000  0.00  0.00    +0.111 A 
ATOM     17  C   UNL     1       4.647  -9.390   0.000  0.00  0.00    +0.021 A 
ATOM     18  C   UNL     1       3.348  -8.640   0.000  0.00  0.00    +0.026 A 
ENDBRANCH  11  13
TORSDOF 1