REMARK  Name = 38007
REMARK  2 active torsions:
REMARK  status: ('A' for Active; 'I' for Inactive)
REMARK    1  A    between atoms: C_4  and  C_8
REMARK    2  A    between atoms: C_11  and  O_18
REMARK                            x       y       z     vdW  Elec       q    Type
REMARK                         _______ _______ _______ _____ _____    ______ ____
ROOT
ATOM      1  N   UNL     1      -7.520   1.976   0.000  0.00  0.00    -0.246 NA
ATOM      2  C   UNL     1      -8.819   2.725   0.000  0.00  0.00    +0.075 A 
ATOM      3  C   UNL     1      -8.819   4.226   0.000  0.00  0.00    +0.028 A 
ATOM      4  C   UNL     1     -10.118   4.976   0.000  0.00  0.00    +0.002 A 
ATOM      5  C   UNL     1     -11.417   4.226   0.000  0.00  0.00    +0.001 A 
ATOM      6  C   UNL     1     -11.417   2.725   0.000  0.00  0.00    +0.013 A 
ATOM      7  C   UNL     1     -10.118   1.976   0.000  0.00  0.00    +0.042 A 
ATOM      8  C   UNL     1     -10.118   0.475   0.000  0.00  0.00    +0.128 A 
ATOM     11  C   UNL     1      -8.819  -0.275   0.000  0.00  0.00    +0.074 A 
ATOM     12  C   UNL     1      -7.520   0.475   0.000  0.00  0.00    +0.075 A 
ENDROOT
BRANCH  12  13
ATOM     13  C   UNL     1      -6.221  -0.275   0.000  0.00  0.00    +0.001 A 
ATOM     14  C   UNL     1      -6.221  -1.775   0.000  0.00  0.00    +0.011 A 
ATOM     15  C   UNL     1      -4.922  -2.525   0.000  0.00  0.00    +0.020 A 
ATOM     16  C   UNL     1      -3.623  -1.775   0.000  0.00  0.00    +0.041 A 
ATOM     17  C   UNL     1      -3.623  -0.275   0.000  0.00  0.00    +0.020 A 
ATOM     18 CL   UNL     1      -2.324  -2.525   0.000  0.00  0.00    -0.084 Cl
ATOM     19  C   UNL     1      -4.922   0.475   0.000  0.00  0.00    +0.011 A 
ENDBRANCH  12  13
BRANCH   8   9
ATOM      9  O   UNL     1     -11.417  -0.275   0.000  0.00  0.00    -0.506 OA
ATOM     10  H   UNL     1     -12.228   0.194   0.000  0.00  0.00    +0.292 HD
ENDBRANCH   8   9
TORSDOF 2