REMARK  Name = 400770
REMARK  4 active torsions:
REMARK  status: ('A' for Active; 'I' for Inactive)
REMARK    1  A    between atoms: C_3  and  C_6
REMARK    2  A    between atoms: C_4  and  O_21
REMARK    3  A    between atoms: C_10  and  C_19
REMARK    4  A    between atoms: C_15  and  C_19
REMARK                            x       y       z     vdW  Elec       q    Type
REMARK                         _______ _______ _______ _____ _____    ______ ____
ROOT
ATOM      3  C   UNL     1      -6.870   1.601   0.000  0.00  0.00    -0.018 A 
ATOM      4  C   UNL     1      -6.870   3.100   0.000  0.00  0.00    +0.009 A 
ATOM      5  C   UNL     1      -8.169   3.850   0.000  0.00  0.00    +0.012 A 
ATOM      6  C   UNL     1      -9.468   3.100   0.000  0.00  0.00    +0.022 A 
ATOM     15  C   UNL     1      -9.468   1.601   0.000  0.00  0.00    +0.012 A 
ATOM     16  C   UNL     1      -8.169   0.851   0.000  0.00  0.00    +0.009 A 
ENDROOT
BRANCH   3   2
ATOM      1  C   UNL     1      -4.272   1.601   0.000  0.00  0.00    +0.012 A 
ATOM      2  C   UNL     1      -5.571   0.851   0.000  0.00  0.00    -0.018 A 
ATOM     17  C   UNL     1      -5.571  -0.649   0.000  0.00  0.00    +0.012 A 
ATOM     18  C   UNL     1      -4.272  -1.400   0.000  0.00  0.00    +0.046 A 
ATOM     19  C   UNL     1      -2.973  -0.649   0.000  0.00  0.00    +0.117 A 
ATOM     22  C   UNL     1      -2.973   0.851   0.000  0.00  0.00    +0.046 A 
BRANCH  19  20
ATOM     20  O   UNL     1      -1.674  -1.400   0.000  0.00  0.00    -0.507 OA
ATOM     21  H   UNL     1      -1.674  -2.336   0.000  0.00  0.00    +0.292 HD
ENDBRANCH  19  20
ENDBRANCH   3   2
BRANCH   6   7
ATOM      7  C   UNL     1     -10.767   3.850   0.000  0.00  0.00    +0.193 C 
ATOM      8  O   UNL     1     -10.767   5.351   0.000  0.00  0.00    -0.287 OA
BRANCH   7   9
ATOM      9  C   UNL     1     -12.066   3.100   0.000  0.00  0.00    +0.022 A 
ATOM     10  C   UNL     1     -12.066   1.601   0.000  0.00  0.00    +0.012 A 
ATOM     11  C   UNL     1     -13.365   0.851   0.000  0.00  0.00    +0.001 A 
ATOM     12  C   UNL     1     -14.664   1.601   0.000  0.00  0.00    +0.000 A 
ATOM     13  C   UNL     1     -14.664   3.100   0.000  0.00  0.00    +0.001 A 
ATOM     14  C   UNL     1     -13.365   3.850   0.000  0.00  0.00    +0.012 A 
ENDBRANCH   7   9
ENDBRANCH   6   7
TORSDOF 4