REMARK  Name = 403374
REMARK  3 active torsions:
REMARK  status: ('A' for Active; 'I' for Inactive)
REMARK    1  A    between atoms: C_4  and  N_8
REMARK    2  A    between atoms: N_8  and  C_9
REMARK    3  A    between atoms: C_9  and  N_11
REMARK                            x       y       z     vdW  Elec       q    Type
REMARK                         _______ _______ _______ _____ _____    ______ ____
ROOT
ATOM      8  C   UNL     1       1.516   0.747   0.000  0.00  0.00    +0.201 C 
ATOM     17  S   UNL     1       0.746   2.034   0.000  0.00  0.00    -0.000 S 
ENDROOT
BRANCH   8   9
ATOM      9  N   UNL     1       3.016   0.770   0.000  0.00  0.00    -0.186 N 
ATOM     10  H   UNL     1       3.495   1.631   0.000  0.00  0.00    +0.253 HD
ATOM     11  C   UNL     1       3.786  -0.517   0.000  0.00  0.00    +0.374 C 
ATOM     12  N   UNL     1       5.286  -0.493   0.000  0.00  0.00    -0.131 NA
ATOM     13  H   UNL     1       5.792  -1.338   0.000  0.00  0.00    +0.306 HD
ATOM     14  N   UNL     1       3.057  -1.827   0.000  0.00  0.00    -0.291 N 
ATOM     15  H   UNL     1       3.562  -2.672   0.000  0.00  0.00    +0.254 HD
ATOM     16  H   UNL     1       2.072  -1.843   0.000  0.00  0.00    +0.254 HD
ENDBRANCH   8   9
BRANCH   8   6
ATOM      6  N   UNL     1       0.786  -0.564   0.000  0.00  0.00    -0.284 N 
ATOM      7  H   UNL     1       1.217  -1.449   0.000  0.00  0.00    +0.155 HD
BRANCH   6   5
ATOM      1 CL   UNL     1      -5.138   0.385   0.000  0.00  0.00    -0.084 Cl
ATOM      2  C   UNL     1      -3.657   0.148   0.000  0.00  0.00    +0.041 A 
ATOM      3  C   UNL     1      -2.711   1.312   0.000  0.00  0.00    +0.022 A 
ATOM      4  C   UNL     1      -1.230   1.075   0.000  0.00  0.00    +0.025 A 
ATOM      5  C   UNL     1      -0.695  -0.327   0.000  0.00  0.00    +0.034 A 
ATOM     18  C   UNL     1      -1.641  -1.491   0.000  0.00  0.00    +0.025 A 
ATOM     19  C   UNL     1      -3.122  -1.253   0.000  0.00  0.00    +0.022 A 
ENDBRANCH   6   5
ENDBRANCH   8   6
TORSDOF 3