REMARK  Name = 41331
REMARK  5 active torsions:
REMARK  status: ('A' for Active; 'I' for Inactive)
REMARK    1  A    between atoms: C_6  and  S_10
REMARK    2  A    between atoms: S_10  and  C_11
REMARK    3  A    between atoms: C_11  and  C_12
REMARK    4  A    between atoms: C_12  and  C_13
REMARK    5  A    between atoms: C_13  and  C_14
REMARK                            x       y       z     vdW  Elec       q    Type
REMARK                         _______ _______ _______ _____ _____    ______ ____
ROOT
ATOM      1  O   UNL     1     -11.142  -0.750   0.000  0.00  0.00    -0.266 OA
ATOM      2  C   UNL     1      -9.843  -1.500   0.000  0.00  0.00    +0.276 A 
ATOM      3  C   UNL     1      -8.544  -0.750   0.000  0.00  0.00    +0.104 A 
ATOM      4  C   UNL     1      -7.245  -1.500   0.000  0.00  0.00    +0.081 A 
ATOM     10  N   UNL     1      -7.245  -3.000   0.000  0.00  0.00    -0.322 N 
ATOM     11  H   UNL     1      -5.946  -3.750   0.000  0.00  0.00    +0.169 HD
ATOM     12  C   UNL     1      -8.544  -3.750   0.000  0.00  0.00    +0.194 A 
ATOM     13  N   UNL     1      -8.544  -5.250   0.000  0.00  0.00    -0.329 N 
ATOM     14  H   UNL     1      -7.692  -5.742   0.000  0.00  0.00    +0.145 HD
ATOM     15  H   UNL     1      -9.397  -5.742   0.000  0.00  0.00    +0.145 HD
ATOM     16  N   UNL     1      -9.843  -3.000   0.000  0.00  0.00    -0.177 NA
ENDROOT
BRANCH   4   5
ATOM      5  S   UNL     1      -5.946  -0.750   0.000  0.00  0.00    -0.108 S 
BRANCH   5   6
ATOM      6  C   UNL     1      -4.647  -1.500   0.000  0.00  0.00    +0.076 C 
BRANCH   6   7
ATOM      7  C   UNL     1      -3.348  -0.750   0.000  0.00  0.00    +0.011 C 
BRANCH   7   8
ATOM      8  C   UNL     1      -2.049  -1.500   0.000  0.00  0.00    -0.003 C 
ATOM      9  C   UNL     1      -0.750  -0.750   0.000  0.00  0.00    +0.004 C 
ENDBRANCH   7   8
ENDBRANCH   6   7
ENDBRANCH   5   6
ENDBRANCH   4   5
TORSDOF 4