REMARK  Name = 38845
REMARK  3 active torsions:
REMARK  status: ('A' for Active; 'I' for Inactive)
REMARK    1  A    between atoms: C_7  and  C_18
REMARK    2  A    between atoms: C_15  and  S_17
REMARK    3  A    between atoms: S_17  and  C_18
REMARK                            x       y       z     vdW  Elec       q    Type
REMARK                         _______ _______ _______ _____ _____    ______ ____
ROOT
ATOM      1  N   UNL     1      -1.157   2.868   0.000  0.00  0.00    -0.242 NA
ATOM      2  C   UNL     1      -0.275   1.654   0.000  0.00  0.00    +0.223 A 
ATOM      3  N   UNL     1       1.217   1.811   0.000  0.00  0.00    -0.215 NA
ATOM      4  C   UNL     1       1.827   3.182   0.000  0.00  0.00    +0.182 A 
ATOM      5  C   UNL     1       0.945   4.395   0.000  0.00  0.00    +0.104 A 
ATOM      6  N   UNL     1       1.827   5.609   0.000  0.00  0.00    -0.330 N 
ATOM      7  C   UNL     1       3.254   5.145   0.000  0.00  0.00    +0.169 A 
ATOM     16  H   UNL     1       1.363   7.035   0.000  0.00  0.00    +0.168 HD
ATOM     17  N   UNL     1       3.254   3.645   0.000  0.00  0.00    -0.202 NA
ATOM     18  C   UNL     1      -0.546   4.238   0.000  0.00  0.00    +0.142 A 
ENDROOT
BRANCH   7   8
ATOM      8  S   UNL     1       4.467   6.027   0.000  0.00  0.00    -0.083 S 
BRANCH   8   9
ATOM      9  C   UNL     1       4.310   7.519   0.000  0.00  0.00    +0.112 C 
BRANCH   9  10
ATOM     10  C   UNL     1       5.524   8.400   0.000  0.00  0.00    -0.037 A 
ATOM     11  C   UNL     1       6.894   7.790   0.000  0.00  0.00    +0.004 A 
ATOM     12  C   UNL     1       8.108   8.672   0.000  0.00  0.00    +0.000 A 
ATOM     13  C   UNL     1       7.951  10.164   0.000  0.00  0.00    +0.000 A 
ATOM     14  C   UNL     1       6.581  10.774   0.000  0.00  0.00    +0.000 A 
ATOM     15  C   UNL     1       5.367   9.892   0.000  0.00  0.00    +0.004 A 
ENDBRANCH   9  10
ENDBRANCH   8   9
ENDBRANCH   7   8
TORSDOF 3