REMARK  Name = 38352
REMARK  6 active torsions:
REMARK  status: ('A' for Active; 'I' for Inactive)
REMARK    1  A    between atoms: C_8  and  C_20
REMARK    2  A    between atoms: C_10  and  C_23
REMARK    3  A    between atoms: C_19  and  C_23
REMARK    4  A    between atoms: C_20  and  C_21
REMARK    5  A    between atoms: C_20  and  O_22
REMARK    6  A    between atoms: C_20  and  C_23
REMARK                            x       y       z     vdW  Elec       q    Type
REMARK                         _______ _______ _______ _____ _____    ______ ____
ROOT
ATOM      4  C   UNL     1       4.647  -7.489   0.000  0.00  0.00    +0.072 C 
ENDROOT
BRANCH   4   3
ATOM      1  H   UNL     1       7.245  -5.989   0.000  0.00  0.00    +0.122 HD
ATOM      2  N   UNL     1       7.245  -7.489   0.000  0.00  0.00    -0.313 NA
ATOM      3  C   UNL     1       5.946  -8.239   0.000  0.00  0.00    +0.064 C 
ATOM     21  C   UNL     1       5.946  -9.739   0.000  0.00  0.00    +0.019 C 
ATOM     22  C   UNL     1       7.245 -10.489   0.000  0.00  0.00    +0.003 C 
ATOM     23  C   UNL     1       8.544  -9.739   0.000  0.00  0.00    +0.015 C 
ATOM     24  C   UNL     1       8.544  -8.239   0.000  0.00  0.00    +0.081 C 
ENDBRANCH   4   3
BRANCH   4  15
ATOM     15  C   UNL     1       3.348  -8.239   0.000  0.00  0.00    -0.040 A 
ATOM     16  C   UNL     1       3.348  -9.739   0.000  0.00  0.00    +0.004 A 
ATOM     17  C   UNL     1       2.049 -10.489   0.000  0.00  0.00    +0.000 A 
ATOM     18  C   UNL     1       0.750  -9.739   0.000  0.00  0.00    +0.000 A 
ATOM     19  C   UNL     1       0.750  -8.239   0.000  0.00  0.00    +0.000 A 
ATOM     20  C   UNL     1       2.049  -7.489   0.000  0.00  0.00    +0.004 A 
ENDBRANCH   4  15
BRANCH   4   5
ATOM      5  C   UNL     1       4.647  -5.989   0.000  0.00  0.00    +0.096 C 
ATOM      8  C   UNL     1       3.147  -5.989   0.000  0.00  0.00    +0.047 C 
BRANCH   5   9
ATOM      9  C   UNL     1       4.647  -4.489   0.000  0.00  0.00    -0.016 A 
ATOM     10  C   UNL     1       3.348  -3.739   0.000  0.00  0.00    +0.006 A 
ATOM     11  C   UNL     1       3.348  -2.239   0.000  0.00  0.00    +0.000 A 
ATOM     12  C   UNL     1       4.647  -1.489   0.000  0.00  0.00    +0.000 A 
ATOM     13  C   UNL     1       5.946  -2.239   0.000  0.00  0.00    +0.000 A 
ATOM     14  C   UNL     1       5.946  -3.739   0.000  0.00  0.00    +0.006 A 
ENDBRANCH   5   9
BRANCH   5   6
ATOM      6  O   UNL     1       6.147  -5.989   0.000  0.00  0.00    -0.384 OA
ATOM      7  H   UNL     1       6.632  -6.829   0.000  0.00  0.00    +0.211 HD
ENDBRANCH   5   6
ENDBRANCH   4   5
TORSDOF 5