REMARK  Name = 407282
REMARK  0 active torsions:
REMARK  status: ('A' for Active; 'I' for Inactive)
REMARK                            x       y       z     vdW  Elec       q    Type
REMARK                         _______ _______ _______ _____ _____    ______ ____
ROOT
ATOM      1  H   UNL     1       2.024   1.197   0.000  0.00  0.00    +0.122 HD
ATOM      2  N   UNL     1       3.324   0.447   0.000  0.00  0.00    -0.315 NA
ATOM      3  C   UNL     1       3.324  -1.053   0.000  0.00  0.00    +0.086 C 
ATOM      4  C   UNL     1       4.622  -1.803   0.000  0.00  0.00    +0.023 C 
ATOM      5  C   UNL     1       5.922  -2.553   0.000  0.00  0.00    +0.130 C 
ATOM      6  N   UNL     1       7.221  -1.803   0.000  0.00  0.00    -0.312 N 
ATOM      7  C   UNL     1       8.520  -2.553   0.000  0.00  0.00    +0.251 A 
ATOM      8  C   UNL     1       9.819  -1.803   0.000  0.00  0.00    +0.070 A 
ATOM      9  C   UNL     1       9.819  -0.303   0.000  0.00  0.00    +0.007 A 
ATOM     10  C   UNL     1       8.520   0.447   0.000  0.00  0.00    +0.022 A 
ATOM     11  O   UNL     1       8.520  -4.053   0.000  0.00  0.00    -0.268 OA
ATOM     12  C   UNL     1       7.221  -0.303   0.000  0.00  0.00    +0.026 A 
ATOM     13  C   UNL     1       5.922   0.447   0.000  0.00  0.00    +0.050 C 
ATOM     14  C   UNL     1       5.922  -1.053   0.000  0.00  0.00    +0.017 C 
ATOM     15  C   UNL     1       4.622   1.197   0.000  0.00  0.00    +0.090 C 
ENDROOT
TORSDOF 0