REMARK  Name = 38042
REMARK  8 active torsions:
REMARK  status: ('A' for Active; 'I' for Inactive)
REMARK    1  A    between atoms: C_2  and  C_11
REMARK    2  A    between atoms: C_3  and  O_13
REMARK    3  A    between atoms: C_5  and  N_7
REMARK    4  A    between atoms: C_6  and  C_12
REMARK    5  A    between atoms: C_8  and  C_10
REMARK    6  A    between atoms: O_13  and  C_14
REMARK    7  A    between atoms: C_14  and  C_15
REMARK    8  A    between atoms: C_15  and  O_17
REMARK                            x       y       z     vdW  Elec       q    Type
REMARK                         _______ _______ _______ _____ _____    ______ ____
ROOT
ATOM      1  C   UNL     1      -7.245  -2.250   0.000  0.00  0.00    +0.050 A 
ATOM      2  C   UNL     1      -5.946  -3.000   0.000  0.00  0.00    +0.122 A 
ATOM      9  C   UNL     1      -5.946  -4.500   0.000  0.00  0.00    +0.050 A 
ATOM     10  C   UNL     1      -7.245  -5.250   0.000  0.00  0.00    -0.026 A 
ATOM     11  C   UNL     1      -7.245  -6.750   0.000  0.00  0.00    +0.046 C 
ATOM     12  C   UNL     1      -8.544  -4.500   0.000  0.00  0.00    +0.039 A 
ATOM     18  C   UNL     1      -8.544  -3.000   0.000  0.00  0.00    -0.026 A 
ATOM     19  C   UNL     1      -9.843  -2.250   0.000  0.00  0.00    +0.046 C 
ENDROOT
BRANCH  12  13
ATOM     13  N   UNL     1      -9.843  -5.250   0.000  0.00  0.00    -0.285 N 
ATOM     14  H   UNL     1      -9.843  -6.234   0.000  0.00  0.00    +0.155 HD
ATOM     15  C   UNL     1     -11.142  -4.500   0.000  0.00  0.00    +0.214 C 
ATOM     16  C   UNL     1     -11.142  -3.000   0.000  0.00  0.00    +0.109 C 
ATOM     17  O   UNL     1     -12.441  -5.250   0.000  0.00  0.00    -0.276 OA
ENDBRANCH  12  13
BRANCH   2   3
ATOM      3  O   UNL     1      -4.647  -2.250   0.000  0.00  0.00    -0.481 OA
BRANCH   3   4
ATOM      4  C   UNL     1      -3.348  -3.000   0.000  0.00  0.00    +0.349 C 
BRANCH   4   5
ATOM      5  C   UNL     1      -2.049  -2.250   0.000  0.00  0.00    +0.343 C 
ATOM      8  O   UNL     1      -0.750  -3.000   0.000  0.00  0.00    -0.247 OA
BRANCH   5   6
ATOM      6  O   UNL     1      -2.049  -0.750   0.000  0.00  0.00    -0.478 OA
ATOM      7  H   UNL     1      -1.238  -0.281   0.000  0.00  0.00    +0.295 HD
ENDBRANCH   5   6
ENDBRANCH   4   5
ENDBRANCH   3   4
ENDBRANCH   2   3
TORSDOF 5