REMARK  Name = 40749
REMARK  5 active torsions:
REMARK  status: ('A' for Active; 'I' for Inactive)
REMARK    1  A    between atoms: N_1  and  C_15
REMARK    2  A    between atoms: N_2  and  C_21
REMARK    3  A    between atoms: N_6  and  C_20
REMARK    4  A    between atoms: N_7  and  C_10
REMARK    5  A    between atoms: C_22  and  C_23
REMARK                            x       y       z     vdW  Elec       q    Type
REMARK                         _______ _______ _______ _____ _____    ______ ____
ROOT
ATOM      3  C   UNL     1       4.342   5.988   0.000  0.00  0.00    +0.177 A 
ATOM      4  C   UNL     1       2.873   6.292   0.000  0.00  0.00    +0.086 A 
ATOM      5  C   UNL     1       2.256   7.659   0.000  0.00  0.00    +0.069 C 
ATOM      6  N   UNL     1       2.130   4.989   0.000  0.00  0.00    -0.213 NA
ATOM      7  C   UNL     1       3.139   3.880   0.000  0.00  0.00    +0.249 A 
ATOM     16  N   UNL     1       4.506   4.497   0.000  0.00  0.00    -0.305 N 
ATOM     17  H   UNL     1       5.809   3.753   0.000  0.00  0.00    +0.170 HD
ENDROOT
BRANCH   3   2
ATOM      1  N   UNL     1       5.132   8.463   0.000  0.00  0.00    -0.148 NA
ATOM      2  N   UNL     1       5.452   6.997   0.000  0.00  0.00    -0.129 NA
BRANCH   1  18
ATOM     18  C   UNL     1       6.242   9.472   0.000  0.00  0.00    +0.086 A 
ATOM     19  C   UNL     1       7.671   9.015   0.000  0.00  0.00    +0.029 A 
ATOM     20  C   UNL     1       8.781  10.025   0.000  0.00  0.00    +0.002 A 
ATOM     21  C   UNL     1       8.461  11.490   0.000  0.00  0.00    +0.000 A 
ATOM     22  C   UNL     1       7.032  11.947   0.000  0.00  0.00    +0.002 A 
ATOM     23  C   UNL     1       5.923  10.937   0.000  0.00  0.00    +0.029 A 
ENDBRANCH   1  18
ENDBRANCH   3   2
BRANCH   7   8
ATOM      8  N   UNL     1       2.834   2.411   0.000  0.00  0.00    -0.110 NA
ATOM      9  N   UNL     1       3.954   1.413   0.000  0.00  0.00    -0.146 NA
BRANCH   9  10
ATOM     10  C   UNL     1       3.650  -0.056   0.000  0.00  0.00    +0.086 A 
ATOM     11  C   UNL     1       4.769  -1.054   0.000  0.00  0.00    +0.029 A 
ATOM     12  C   UNL     1       4.465  -2.523   0.000  0.00  0.00    +0.002 A 
ATOM     13  C   UNL     1       3.041  -2.994   0.000  0.00  0.00    +0.000 A 
ATOM     14  C   UNL     1       1.921  -1.996   0.000  0.00  0.00    +0.002 A 
ATOM     15  C   UNL     1       2.225  -0.527   0.000  0.00  0.00    +0.029 A 
ENDBRANCH   9  10
ENDBRANCH   7   8
TORSDOF 4