REMARK  Name = 3961
REMARK  1 active torsions:
REMARK  status: ('A' for Active; 'I' for Inactive)
REMARK    1  A    between atoms: C_6  and  N_16
REMARK                            x       y       z     vdW  Elec       q    Type
REMARK                         _______ _______ _______ _____ _____    ______ ____
ROOT
ATOM      1  C   UNL     1       6.348  -0.561   0.000  0.00  0.00    +0.147 A 
ATOM      2  C   UNL     1       4.922  -1.025   0.000  0.00  0.00    +0.070 A 
ATOM      3  C   UNL     1       4.922  -2.525   0.000  0.00  0.00    +0.167 A 
ATOM      4  N   UNL     1       3.623  -3.275   0.000  0.00  0.00    -0.218 NA
ATOM      5  C   UNL     1       2.324  -2.525   0.000  0.00  0.00    +0.199 A 
ATOM      6  N   UNL     1       2.324  -1.025   0.000  0.00  0.00    -0.340 N 
ATOM      7  H   UNL     1       1.025  -0.275   0.000  0.00  0.00    +0.167 HD
ATOM      8  N   UNL     1       6.348  -2.988   0.000  0.00  0.00    -0.214 N 
ATOM     15  C   UNL     1       3.623  -0.275   0.000  0.00  0.00    +0.098 A 
ATOM     16  S   UNL     1       3.623   1.226   0.000  0.00  0.00    -0.032 S 
ATOM     17  N   UNL     1       7.230  -1.775   0.000  0.00  0.00    -0.172 NA
ENDROOT
BRANCH   8   9
ATOM      9  C   UNL     1       6.812  -4.415   0.000  0.00  0.00    +0.068 A 
ATOM     10  C   UNL     1       8.279  -4.726   0.000  0.00  0.00    +0.028 A 
ATOM     11  C   UNL     1       8.742  -6.153   0.000  0.00  0.00    +0.002 A 
ATOM     12  C   UNL     1       7.739  -7.268   0.000  0.00  0.00    +0.000 A 
ATOM     13  C   UNL     1       6.272  -6.956   0.000  0.00  0.00    +0.002 A 
ATOM     14  C   UNL     1       5.808  -5.529   0.000  0.00  0.00    +0.028 A 
ENDBRANCH   8   9
TORSDOF 1