REMARK  Name = 38490
REMARK  6 active torsions:
REMARK  status: ('A' for Active; 'I' for Inactive)
REMARK    1  A    between atoms: C_9  and  C_10
REMARK    2  A    between atoms: C_10  and  C_11
REMARK    3  A    between atoms: C_11  and  C_13
REMARK    4  A    between atoms: C_13  and  O_15
REMARK    5  A    between atoms: O_15  and  C_16
REMARK    6  A    between atoms: C_16  and  C_17
REMARK                            x       y       z     vdW  Elec       q    Type
REMARK                         _______ _______ _______ _____ _____    ______ ____
ROOT
ATOM      1  S   UNL     1      -5.656   2.238   0.000  0.00  0.00    -0.072 S 
ATOM      2  C   UNL     1      -4.774   1.025   0.000  0.00  0.00    +0.087 A 
ATOM     11  N   UNL     1      -5.656  -0.189   0.000  0.00  0.00    -0.244 NA
ATOM     12  C   UNL     1      -7.083   0.275   0.000  0.00  0.00    +0.078 A 
ATOM     13  C   UNL     1      -8.382  -0.475   0.000  0.00  0.00    +0.029 A 
ATOM     14  C   UNL     1      -9.681   0.275   0.000  0.00  0.00    +0.002 A 
ATOM     15  C   UNL     1      -9.681   1.775   0.000  0.00  0.00    +0.001 A 
ATOM     16  C   UNL     1      -8.382   2.525   0.000  0.00  0.00    +0.017 A 
ATOM     17  C   UNL     1      -7.083   1.775   0.000  0.00  0.00    +0.039 A 
ENDROOT
BRANCH   2   3
ATOM      3  C   UNL     1      -3.275   1.025   0.000  0.00  0.00    +0.149 C 
BRANCH   3   4
ATOM      4  C   UNL     1      -2.525  -0.275   0.000  0.00  0.00    +0.245 C 
ATOM     10  O   UNL     1      -1.025  -0.275   0.000  0.00  0.00    -0.285 OA
BRANCH   4   5
ATOM      5  C   UNL     1      -3.275  -1.574   0.000  0.00  0.00    +0.375 C 
ATOM      9  O   UNL     1      -2.525  -2.873   0.000  0.00  0.00    -0.242 OA
BRANCH   5   6
ATOM      6  O   UNL     1      -4.774  -1.574   0.000  0.00  0.00    -0.459 OA
BRANCH   6   7
ATOM      7  C   UNL     1      -5.524  -2.873   0.000  0.00  0.00    +0.229 C 
ATOM      8  C   UNL     1      -4.774  -4.172   0.000  0.00  0.00    +0.048 C 
ENDBRANCH   6   7
ENDBRANCH   5   6
ENDBRANCH   4   5
ENDBRANCH   3   4
ENDBRANCH   2   3
TORSDOF 5