REMARK  Name = 403268
REMARK  3 active torsions:
REMARK  status: ('A' for Active; 'I' for Inactive)
REMARK    1  A    between atoms: C_10  and  C_18
REMARK    2  A    between atoms: C_12  and  C_15
REMARK    3  A    between atoms: C_15  and  O_17
REMARK                            x       y       z     vdW  Elec       q    Type
REMARK                         _______ _______ _______ _____ _____    ______ ____
ROOT
ATOM      7  C   UNL     1       1.083  -6.522   0.000  0.00  0.00    -0.010 A 
ATOM      8  C   UNL     1      -0.216  -5.772   0.000  0.00  0.00    +0.066 A 
ATOM     13  C   UNL     1      -1.515  -6.522   0.000  0.00  0.00    +0.015 A 
ATOM     14  C   UNL     1      -1.515  -8.022   0.000  0.00  0.00    +0.001 A 
ATOM     15  C   UNL     1      -0.216  -8.772   0.000  0.00  0.00    +0.001 A 
ATOM     16  C   UNL     1       1.083  -8.022   0.000  0.00  0.00    +0.009 A 
ENDROOT
BRANCH   7   6
ATOM      1  H   UNL     1       4.013  -0.750   0.000  0.00  0.00    +0.156 HD
ATOM      2  N   UNL     1       3.132  -1.964   0.000  0.00  0.00    -0.270 N 
ATOM      3  C   UNL     1       1.632  -1.964   0.000  0.00  0.00    +0.118 C 
ATOM      4  S   UNL     1       1.168  -3.390   0.000  0.00  0.00    -0.061 S 
ATOM      5  C   UNL     1       2.382  -4.272   0.000  0.00  0.00    +0.077 C 
ATOM      6  C   UNL     1       2.382  -5.772   0.000  0.00  0.00    +0.029 C 
ATOM     17  S   UNL     1       0.750  -0.750   0.000  0.00  0.00    -0.027 S 
ATOM     18  C   UNL     1       3.595  -3.390   0.000  0.00  0.00    +0.256 C 
ATOM     19  O   UNL     1       5.022  -3.854   0.000  0.00  0.00    -0.269 OA
ENDBRANCH   7   6
BRANCH   8   9
ATOM      9  C   UNL     1      -0.216  -4.272   0.000  0.00  0.00    +0.337 C 
ATOM     12  O   UNL     1       1.083  -3.522   0.000  0.00  0.00    -0.245 OA
BRANCH   9  10
ATOM     10  O   UNL     1      -1.515  -3.522   0.000  0.00  0.00    -0.477 OA
ATOM     11  H   UNL     1      -1.515  -2.585   0.000  0.00  0.00    +0.295 HD
ENDBRANCH   9  10
ENDBRANCH   8   9
TORSDOF 3