REMARK  Name = 39984
REMARK  5 active torsions:
REMARK  status: ('A' for Active; 'I' for Inactive)
REMARK    1  A    between atoms: C_5  and  C_8
REMARK    2  A    between atoms: C_11  and  C_20
REMARK    3  A    between atoms: C_16  and  O_18
REMARK    4  A    between atoms: O_18  and  C_19
REMARK    5  A    between atoms: C_20  and  O_22
REMARK                            x       y       z     vdW  Elec       q    Type
REMARK                         _______ _______ _______ _____ _____    ______ ____
ROOT
ATOM      1  N   UNL     1      -7.520   1.976   0.000  0.00  0.00    -0.247 NA
ATOM      2  C   UNL     1      -8.819   2.725   0.000  0.00  0.00    +0.073 A 
ATOM      3  C   UNL     1      -8.819   4.226   0.000  0.00  0.00    +0.032 A 
ATOM      4  C   UNL     1     -10.118   4.976   0.000  0.00  0.00    +0.048 A 
ATOM      5  C   UNL     1     -11.417   4.226   0.000  0.00  0.00    +0.121 A 
ATOM      8  C   UNL     1     -11.417   2.725   0.000  0.00  0.00    +0.056 A 
ATOM      9  C   UNL     1     -10.118   1.976   0.000  0.00  0.00    +0.018 A 
ATOM     10  C   UNL     1     -10.118   0.475   0.000  0.00  0.00    +0.070 A 
ATOM     15  C   UNL     1      -8.819  -0.275   0.000  0.00  0.00    +0.044 A 
ATOM     16  C   UNL     1      -7.520   0.475   0.000  0.00  0.00    +0.072 A 
ENDROOT
BRANCH  16  17
ATOM     17  C   UNL     1      -6.221  -0.275   0.000  0.00  0.00    +0.000 A 
ATOM     18  C   UNL     1      -6.221  -1.775   0.000  0.00  0.00    +0.011 A 
ATOM     19  C   UNL     1      -4.922  -2.525   0.000  0.00  0.00    +0.020 A 
ATOM     20  C   UNL     1      -3.623  -1.775   0.000  0.00  0.00    +0.041 A 
ATOM     21  C   UNL     1      -3.623  -0.275   0.000  0.00  0.00    +0.020 A 
ATOM     22 CL   UNL     1      -2.324  -2.525   0.000  0.00  0.00    -0.084 Cl
ATOM     23  C   UNL     1      -4.922   0.475   0.000  0.00  0.00    +0.011 A 
ENDBRANCH  16  17
BRANCH   5   6
ATOM      6  O   UNL     1     -12.716   4.976   0.000  0.00  0.00    -0.495 OA
ATOM      7  C   UNL     1     -12.716   6.476   0.000  0.00  0.00    +0.277 C 
ENDBRANCH   5   6
BRANCH  10  11
ATOM     11  C   UNL     1     -11.417  -0.275   0.000  0.00  0.00    +0.338 C 
ATOM     14  O   UNL     1     -12.716   0.475   0.000  0.00  0.00    -0.245 OA
BRANCH  11  12
ATOM     12  O   UNL     1     -11.417  -1.775   0.000  0.00  0.00    -0.477 OA
ATOM     13  H   UNL     1     -12.228  -2.243   0.000  0.00  0.00    +0.295 HD
ENDBRANCH  11  12
ENDBRANCH  10  11
TORSDOF 4