REMARK  Name = 382035
REMARK  9 active torsions:
REMARK  status: ('A' for Active; 'I' for Inactive)
REMARK    1  A    between atoms: C_3  and  N_15
REMARK    2  A    between atoms: C_5  and  C_7
REMARK    3  A    between atoms: C_6  and  C_16
REMARK    4  A    between atoms: C_11  and  N_13
REMARK    5  A    between atoms: C_12  and  N_18
REMARK    6  A    between atoms: N_13  and  C_21
REMARK    7  A    between atoms: N_13  and  C_22
REMARK    8  A    between atoms: C_16  and  C_17
REMARK    9  A    between atoms: C_22  and  C_23
REMARK                            x       y       z     vdW  Elec       q    Type
REMARK                         _______ _______ _______ _____ _____    ______ ____
ROOT
ATOM     11  C   UNL     1       3.522   7.399   0.000  0.00  0.00    -0.006 A 
ATOM     12  C   UNL     1       4.821   6.649   0.000  0.00  0.00    +0.095 A 
ATOM     13  C   UNL     1       6.120   7.399   0.000  0.00  0.00    +0.294 A 
ATOM     17  C   UNL     1       6.120   8.899   0.000  0.00  0.00    +0.108 A 
ATOM     27  C   UNL     1       4.821   9.649   0.000  0.00  0.00    +0.030 A 
ATOM     28  C   UNL     1       3.522   8.899   0.000  0.00  0.00    +0.011 A 
ENDROOT
BRANCH  11  10
ATOM      1  N   UNL     1      -0.375   6.649   0.000  0.00  0.00    -0.199 NA
ATOM      2  C   UNL     1      -0.375   5.149   0.000  0.00  0.00    +0.214 A 
ATOM      3  N   UNL     1      -1.674   4.399   0.000  0.00  0.00    -0.327 N 
ATOM      4  H   UNL     1      -1.674   3.415   0.000  0.00  0.00    +0.145 HD
ATOM      5  H   UNL     1      -2.527   4.892   0.000  0.00  0.00    +0.145 HD
ATOM      6  N   UNL     1       0.924   4.399   0.000  0.00  0.00    -0.219 NA
ATOM      7  C   UNL     1       2.223   5.149   0.000  0.00  0.00    +0.056 A 
ATOM     10  C   UNL     1       2.223   6.649   0.000  0.00  0.00    +0.043 A 
ATOM     29  C   UNL     1       0.924   7.399   0.000  0.00  0.00    +0.129 A 
BRANCH  29  30
ATOM     30  N   UNL     1       0.924   8.899   0.000  0.00  0.00    -0.343 N 
ATOM     31  H   UNL     1       0.071   9.392   0.000  0.00  0.00    +0.144 HD
ATOM     32  H   UNL     1       1.777   9.392   0.000  0.00  0.00    +0.144 HD
ENDBRANCH  29  30
BRANCH   7   8
ATOM      8  C   UNL     1       3.522   4.399   0.000  0.00  0.00    +0.053 C 
ATOM      9  C   UNL     1       4.821   5.149   0.000  0.00  0.00    +0.010 C 
ENDBRANCH   7   8
ENDBRANCH  11  10
BRANCH  13  14
ATOM     14  N   UNL     1       7.419   6.649   0.000  0.00  0.00    +0.082 N 
ATOM     15  O   UNL     1       7.419   5.149   0.000  0.00  0.00    +0.042 OA
ATOM     16  O   UNL     1       8.718   7.399   0.000  0.00  0.00    -0.576 OA
ENDBRANCH  13  14
BRANCH  17  18
ATOM     18  N   UNL     1       7.419   9.649   0.000  0.00  0.00    -0.323 N 
ATOM     26  C   UNL     1       7.419  11.150   0.000  0.00  0.00    +0.130 C 
BRANCH  18  19
ATOM     19  C   UNL     1       8.718   8.899   0.000  0.00  0.00    +0.140 C 
BRANCH  19  20
ATOM     20  C   UNL     1      10.017   9.649   0.000  0.00  0.00    -0.030 A 
ATOM     21  C   UNL     1      11.316   8.899   0.000  0.00  0.00    +0.005 A 
ATOM     22  C   UNL     1      12.615   9.649   0.000  0.00  0.00    +0.000 A 
ATOM     23  C   UNL     1      12.615  11.150   0.000  0.00  0.00    +0.000 A 
ATOM     24  C   UNL     1      11.316  11.900   0.000  0.00  0.00    +0.000 A 
ATOM     25  C   UNL     1      10.017  11.150   0.000  0.00  0.00    +0.005 A 
ENDBRANCH  19  20
ENDBRANCH  18  19
ENDBRANCH  17  18
TORSDOF 7