REMARK  Name = 403447
REMARK  6 active torsions:
REMARK  status: ('A' for Active; 'I' for Inactive)
REMARK    1  A    between atoms: C_19  and  C_25
REMARK    2  A    between atoms: C_20  and  C_21
REMARK    3  A    between atoms: C_21  and  C_22
REMARK    4  A    between atoms: C_22  and  C_23
REMARK    5  A    between atoms: C_23  and  C_24
REMARK    6  A    between atoms: C_24  and  C_25
REMARK                            x       y       z     vdW  Elec       q    Type
REMARK                         _______ _______ _______ _____ _____    ______ ____
ROOT
ATOM      6  C   UNL     1      -6.853  -2.091   0.000  0.00  0.00    +0.001 C 
ENDROOT
BRANCH   6   5
ATOM      5  C   UNL     1      -8.353  -2.091   0.000  0.00  0.00    +0.008 C 
BRANCH   5   4
ATOM      4  C   UNL     1      -9.103  -3.390   0.000  0.00  0.00    +0.074 C 
BRANCH   4   3
ATOM      1  H   UNL     1     -11.021  -0.750   0.000  0.00  0.00    +0.167 HD
ATOM      2  N   UNL     1     -11.484  -2.177   0.000  0.00  0.00    -0.342 N 
ATOM      3  C   UNL     1     -10.603  -3.390   0.000  0.00  0.00    +0.108 A 
ATOM     19  N   UNL     1     -11.484  -4.604   0.000  0.00  0.00    -0.232 NA
ATOM     20  C   UNL     1     -12.911  -4.140   0.000  0.00  0.00    +0.089 A 
ATOM     21  C   UNL     1     -14.210  -4.890   0.000  0.00  0.00    +0.030 A 
ATOM     22  C   UNL     1     -15.509  -4.140   0.000  0.00  0.00    +0.002 A 
ATOM     23  C   UNL     1     -15.509  -2.640   0.000  0.00  0.00    +0.002 A 
ATOM     24  C   UNL     1     -14.210  -1.890   0.000  0.00  0.00    +0.028 A 
ATOM     25  C   UNL     1     -12.911  -2.640   0.000  0.00  0.00    +0.066 A 
ENDBRANCH   4   3
ENDBRANCH   5   4
ENDBRANCH   6   5
BRANCH   6   7
ATOM      7  C   UNL     1      -6.103  -0.792   0.000  0.00  0.00    +0.008 C 
BRANCH   7   8
ATOM      8  C   UNL     1      -4.603  -0.792   0.000  0.00  0.00    +0.074 C 
BRANCH   8   9
ATOM      9  C   UNL     1      -3.853  -2.091   0.000  0.00  0.00    +0.108 A 
ATOM     10  N   UNL     1      -2.361  -2.248   0.000  0.00  0.00    -0.342 N 
ATOM     11  C   UNL     1      -2.049  -3.715   0.000  0.00  0.00    +0.066 A 
ATOM     12  C   UNL     1      -3.348  -4.465   0.000  0.00  0.00    +0.089 A 
ATOM     13  C   UNL     1      -3.348  -5.965   0.000  0.00  0.00    +0.030 A 
ATOM     14  C   UNL     1      -2.049  -6.715   0.000  0.00  0.00    +0.002 A 
ATOM     15  C   UNL     1      -0.750  -5.965   0.000  0.00  0.00    +0.002 A 
ATOM     16  C   UNL     1      -0.750  -4.465   0.000  0.00  0.00    +0.028 A 
ATOM     17  H   UNL     1      -1.357  -1.133   0.000  0.00  0.00    +0.167 HD
ATOM     18  N   UNL     1      -4.463  -3.461   0.000  0.00  0.00    -0.232 NA
ENDBRANCH   8   9
ENDBRANCH   7   8
ENDBRANCH   6   7
TORSDOF 6