REMARK  Name = 40269
REMARK  5 active torsions:
REMARK  status: ('A' for Active; 'I' for Inactive)
REMARK    1  A    between atoms: N_2  and  C_7
REMARK    2  A    between atoms: C_11  and  C_24
REMARK    3  A    between atoms: C_14  and  C_24
REMARK    4  A    between atoms: C_18  and  C_24
REMARK    5  A    between atoms: C_24  and  O_25
REMARK                            x       y       z     vdW  Elec       q    Type
REMARK                         _______ _______ _______ _____ _____    ______ ____
ROOT
ATOM     12  C   UNL     1      -3.085  -5.596   0.000  0.00  0.00    +0.174 C 
ENDROOT
BRANCH  12  15
ATOM     15  C   UNL     1      -3.835  -6.895   0.000  0.00  0.00    -0.004 A 
ATOM     16  C   UNL     1      -5.335  -6.895   0.000  0.00  0.00    +0.007 A 
ATOM     17  C   UNL     1      -6.085  -8.194   0.000  0.00  0.00    +0.000 A 
ATOM     18  C   UNL     1      -5.335  -9.493   0.000  0.00  0.00    +0.000 A 
ATOM     19  C   UNL     1      -3.835  -9.493   0.000  0.00  0.00    +0.000 A 
ATOM     20  C   UNL     1      -3.085  -8.194   0.000  0.00  0.00    +0.007 A 
ENDBRANCH  12  15
BRANCH  12  21
ATOM     21  C   UNL     1      -1.786  -6.346   0.000  0.00  0.00    -0.004 A 
ATOM     22  C   UNL     1      -1.786  -7.846   0.000  0.00  0.00    +0.007 A 
ATOM     23  C   UNL     1      -0.487  -8.596   0.000  0.00  0.00    +0.000 A 
ATOM     24  C   UNL     1       0.812  -7.846   0.000  0.00  0.00    +0.000 A 
ATOM     25  C   UNL     1       0.812  -6.346   0.000  0.00  0.00    +0.000 A 
ATOM     26  C   UNL     1      -0.487  -5.596   0.000  0.00  0.00    +0.007 A 
ENDBRANCH  12  21
BRANCH  12  11
ATOM      1  N   UNL     1      -0.843  -4.140   0.000  0.00  0.00    -0.237 NA
ATOM      2  C   UNL     1      -0.531  -2.673   0.000  0.00  0.00    +0.131 A 
ATOM      3  C   UNL     1      -1.831  -1.923   0.000  0.00  0.00    +0.112 A 
ATOM      4  N   UNL     1      -2.945  -2.926   0.000  0.00  0.00    -0.300 N 
ATOM     11  C   UNL     1      -2.335  -4.297   0.000  0.00  0.00    +0.155 A 
BRANCH   4   5
ATOM      5  C   UNL     1      -4.412  -2.615   0.000  0.00  0.00    +0.048 A 
ATOM      6  C   UNL     1      -5.416  -3.729   0.000  0.00  0.00    +0.026 A 
ATOM      7  C   UNL     1      -6.883  -3.418   0.000  0.00  0.00    +0.002 A 
ATOM      8  C   UNL     1      -7.347  -1.991   0.000  0.00  0.00    +0.000 A 
ATOM      9  C   UNL     1      -6.343  -0.876   0.000  0.00  0.00    +0.002 A 
ATOM     10  C   UNL     1      -4.876  -1.188   0.000  0.00  0.00    +0.026 A 
ENDBRANCH   4   5
ENDBRANCH  12  11
BRANCH  12  13
ATOM     13  O   UNL     1      -4.384  -4.846   0.000  0.00  0.00    -0.372 OA
ATOM     14  H   UNL     1      -4.384  -3.876   0.000  0.00  0.00    +0.212 HD
ENDBRANCH  12  13
TORSDOF 5