REMARK  Name = 402843
REMARK  5 active torsions:
REMARK  status: ('A' for Active; 'I' for Inactive)
REMARK    1  A    between atoms: C_3  and  AS_11
REMARK    2  A    between atoms: C_7  and  C_8
REMARK    3  A    between atoms: C_8  and  O_10
REMARK    4  A    between atoms: AS_11  and  C_12
REMARK    5  A    between atoms: AS_11  and  O_13
REMARK                            x       y       z     vdW  Elec       q    Type
REMARK                         _______ _______ _______ _____ _____    ______ ____
ROOT
ATOM      6  C   UNL     1       0.375   6.649   0.000  0.00  0.00    +0.000 A 
ATOM      7  C   UNL     1       0.375   5.149   0.000  0.00  0.00    +0.000 A 
ATOM      8  C   UNL     1      -0.924   4.399   0.000  0.00  0.00    +0.000 A 
ATOM     13  C   UNL     1      -2.223   5.149   0.000  0.00  0.00    +0.000 A 
ATOM     14  C   UNL     1      -2.223   6.649   0.000  0.00  0.00    +0.000 A 
ATOM     15  C   UNL     1      -0.924   7.399   0.000  0.00  0.00    +0.000 A 
ENDROOT
BRANCH   6   2
ATOM      1  O   UNL     1       3.579   6.826   0.000  0.00  0.00    +0.000 OA
ATOM      2 AS   UNL     1       2.518   7.887   0.000  0.00  0.00    +0.000 As
ATOM      5  C   UNL     1       2.907   9.336   0.000  0.00  0.00    +0.000 C 
BRANCH   2   3
ATOM      3  O   UNL     1       1.018   7.887   0.000  0.00  0.00    +0.000 OA
ATOM      4  H   UNL     1       0.533   8.727   0.000  0.00  0.00    +0.000 HD
ENDBRANCH   2   3
ENDBRANCH   6   2
BRANCH   8   9
ATOM      9  C   UNL     1      -0.924   2.900   0.000  0.00  0.00    +0.000 C 
ATOM     12  O   UNL     1      -2.223   2.150   0.000  0.00  0.00    +0.000 OA
BRANCH   9  10
ATOM     10  O   UNL     1       0.375   2.150   0.000  0.00  0.00    +0.000 OA
ATOM     11  H   UNL     1       0.375   1.213   0.000  0.00  0.00    +0.000 HD
ENDBRANCH   9  10
ENDBRANCH   8   9
TORSDOF 4