REMARK  Name = 40840
REMARK  3 active torsions:
REMARK  status: ('A' for Active; 'I' for Inactive)
REMARK    1  A    between atoms: C_3  and  C_9
REMARK    2  A    between atoms: C_4  and  N_7
REMARK    3  A    between atoms: C_9  and  S_10
REMARK                            x       y       z     vdW  Elec       q    Type
REMARK                         _______ _______ _______ _____ _____    ______ ____
ROOT
ATOM      1  N   UNL     1      -4.647  -0.750   0.000  0.00  0.00    -0.217 NA
ATOM      2  C   UNL     1      -5.946  -1.500   0.000  0.00  0.00    +0.121 A 
ATOM      6  C   UNL     1      -5.946  -3.000   0.000  0.00  0.00    +0.086 A 
ATOM      7  C   UNL     1      -4.647  -3.750   0.000  0.00  0.00    +0.121 A 
ATOM      8  N   UNL     1      -4.647  -5.250   0.000  0.00  0.00    -0.343 N 
ATOM      9  H   UNL     1      -3.794  -5.742   0.000  0.00  0.00    +0.144 HD
ATOM     10  H   UNL     1      -5.500  -5.742   0.000  0.00  0.00    +0.144 HD
ATOM     11  N   UNL     1      -3.348  -3.000   0.000  0.00  0.00    -0.217 NA
ATOM     12  C   UNL     1      -3.348  -1.500   0.000  0.00  0.00    +0.143 A 
ENDROOT
BRANCH   2   3
ATOM      3  N   UNL     1      -7.245  -0.750   0.000  0.00  0.00    -0.343 N 
ATOM      4  H   UNL     1      -8.098  -1.242   0.000  0.00  0.00    +0.144 HD
ATOM      5  H   UNL     1      -7.245   0.234   0.000  0.00  0.00    +0.144 HD
ENDBRANCH   2   3
BRANCH  12  13
ATOM     13  C   UNL     1      -2.049  -0.750   0.000  0.00  0.00    +0.141 C 
BRANCH  13  14
ATOM     14  S   UNL     1      -0.750  -1.500   0.000  0.00  0.00    -0.170 S 
ATOM     15  H   UNL     1      -0.750  -2.860   0.000  0.00  0.00    +0.102 HD
ENDBRANCH  13  14
ENDBRANCH  12  13
TORSDOF 3