REMARK  Name = 407628
REMARK  5 active torsions:
REMARK  status: ('A' for Active; 'I' for Inactive)
REMARK    1  A    between atoms: C_14  and  C_17
REMARK    2  A    between atoms: C_17  and  C_19
REMARK    3  A    between atoms: C_19  and  C_20
REMARK    4  A    between atoms: C_20  and  C_21
REMARK    5  A    between atoms: C_21  and  O_23
REMARK                            x       y       z     vdW  Elec       q    Type
REMARK                         _______ _______ _______ _____ _____    ______ ____
ROOT
ATOM      1  C   UNL     1       4.922   5.524   0.000  0.00  0.00    +0.001 A 
ATOM      2  C   UNL     1       3.623   4.774   0.000  0.00  0.00    +0.008 A 
ATOM      3  C   UNL     1       3.623   3.275   0.000  0.00  0.00    -0.017 A 
ATOM      4  C   UNL     1       2.324   2.525   0.000  0.00  0.00    +0.009 A 
ATOM      5  C   UNL     1       2.324   1.025   0.000  0.00  0.00    +0.009 A 
ATOM      6  C   UNL     1       3.623   0.275   0.000  0.00  0.00    -0.017 A 
ATOM      7  C   UNL     1       3.623  -1.226   0.000  0.00  0.00    +0.009 A 
ATOM      8  C   UNL     1       4.922  -1.976   0.000  0.00  0.00    +0.012 A 
ATOM      9  C   UNL     1       6.221  -1.226   0.000  0.00  0.00    +0.025 A 
ATOM     18  C   UNL     1       6.221   0.275   0.000  0.00  0.00    -0.006 A 
ATOM     19  C   UNL     1       7.520   1.025   0.000  0.00  0.00    +0.010 A 
ATOM     20  C   UNL     1       7.520   2.525   0.000  0.00  0.00    +0.009 A 
ATOM     21  C   UNL     1       6.221   3.275   0.000  0.00  0.00    -0.017 A 
ATOM     22  C   UNL     1       4.922   1.025   0.000  0.00  0.00    -0.002 A 
ATOM     23  C   UNL     1       4.922   2.525   0.000  0.00  0.00    -0.002 A 
ATOM     24  C   UNL     1       6.221   4.774   0.000  0.00  0.00    +0.008 A 
ENDROOT
BRANCH   9  10
ATOM     10  C   UNL     1       7.520  -1.976   0.000  0.00  0.00    +0.164 C 
ATOM     17  O   UNL     1       7.520  -3.475   0.000  0.00  0.00    -0.292 OA
BRANCH  10  11
ATOM     11  C   UNL     1       8.819  -1.226   0.000  0.00  0.00    +0.091 C 
BRANCH  11  12
ATOM     12  C   UNL     1       8.819   0.275   0.000  0.00  0.00    +0.128 C 
BRANCH  12  13
ATOM     13  C   UNL     1      10.118   1.025   0.000  0.00  0.00    +0.305 C 
ATOM     16  O   UNL     1      10.118   2.525   0.000  0.00  0.00    -0.251 OA
BRANCH  13  14
ATOM     14  O   UNL     1      11.417   0.275   0.000  0.00  0.00    -0.481 OA
ATOM     15  H   UNL     1      11.417  -0.662   0.000  0.00  0.00    +0.295 HD
ENDBRANCH  13  14
ENDBRANCH  12  13
ENDBRANCH  11  12
ENDBRANCH  10  11
ENDBRANCH   9  10
TORSDOF 5