REMARK  Name = 38090
REMARK  5 active torsions:
REMARK  status: ('A' for Active; 'I' for Inactive)
REMARK    1  A    between atoms: N_1  and  C_17
REMARK    2  A    between atoms: O_3  and  C_7
REMARK    3  A    between atoms: O_3  and  S_18
REMARK    4  A    between atoms: C_4  and  N_21
REMARK    5  A    between atoms: C_5  and  S_18
REMARK                            x       y       z     vdW  Elec       q    Type
REMARK                         _______ _______ _______ _____ _____    ______ ____
ROOT
ATOM     10  S   UNL     1      -2.252  -5.215   0.000  0.00  0.00    +0.175 S 
ATOM     11  O   UNL     1      -1.502  -6.514   0.000  0.00  0.00    -0.130 OA
ATOM     12  O   UNL     1      -3.002  -3.916   0.000  0.00  0.00    -0.130 OA
ENDROOT
BRANCH  10   9
ATOM      1  N   UNL     1      -0.797  -2.973   0.000  0.00  0.00    -0.310 N 
ATOM      2  C   UNL     1      -1.911  -1.970   0.000  0.00  0.00    +0.152 C 
ATOM      3  C   UNL     1       0.670  -2.661   0.000  0.00  0.00    +0.207 A 
ATOM      4  N   UNL     1       1.421  -3.960   0.000  0.00  0.00    -0.169 NA
ATOM      5  C   UNL     1       0.417  -5.075   0.000  0.00  0.00    +0.414 A 
ATOM      9  C   UNL     1      -0.954  -4.465   0.000  0.00  0.00    +0.297 A 
BRANCH   5   6
ATOM      6  N   UNL     1       0.729  -6.542   0.000  0.00  0.00    +0.104 N 
ATOM      7  O   UNL     1       2.155  -7.006   0.000  0.00  0.00    +0.043 OA
ATOM      8  O   UNL     1      -0.386  -7.546   0.000  0.00  0.00    -0.575 OA
ENDBRANCH   5   6
ENDBRANCH  10   9
BRANCH  10  13
ATOM     13  O   UNL     1      -3.551  -5.965   0.000  0.00  0.00    -0.340 OA
BRANCH  13  14
ATOM     14  C   UNL     1      -3.551  -7.465   0.000  0.00  0.00    +0.165 A 
ATOM     15  C   UNL     1      -4.851  -8.215   0.000  0.00  0.00    +0.027 A 
ATOM     16  C   UNL     1      -6.150  -7.465   0.000  0.00  0.00    +0.012 A 
ATOM     17  C   UNL     1      -7.449  -8.215   0.000  0.00  0.00    +0.001 A 
ATOM     18  C   UNL     1      -7.449  -9.715   0.000  0.00  0.00    +0.001 A 
ATOM     19  C   UNL     1      -6.150 -10.465   0.000  0.00  0.00    +0.008 A 
ATOM     20  C   UNL     1      -4.851  -9.715   0.000  0.00  0.00    -0.014 A 
ATOM     21  C   UNL     1      -3.551 -10.465   0.000  0.00  0.00    +0.009 A 
ATOM     22  C   UNL     1      -2.252  -9.715   0.000  0.00  0.00    +0.004 A 
ATOM     23  C   UNL     1      -2.252  -8.215   0.000  0.00  0.00    +0.049 A 
ENDBRANCH  13  14
ENDBRANCH  10  13
TORSDOF 4