REMARK  Name = 39047
REMARK  4 active torsions:
REMARK  status: ('A' for Active; 'I' for Inactive)
REMARK    1  A    between atoms: O_1  and  C_4
REMARK    2  A    between atoms: O_1  and  C_9
REMARK    3  A    between atoms: C_5  and  C_17
REMARK    4  A    between atoms: C_12  and  C_14
REMARK                            x       y       z     vdW  Elec       q    Type
REMARK                         _______ _______ _______ _____ _____    ______ ____
ROOT
ATOM      1  O   UNL     1       4.272  -5.899   0.000  0.00  0.00    -0.456 OA
ENDROOT
BRANCH   1   2
ATOM      2  C   UNL     1       4.272  -4.399   0.000  0.00  0.00    +0.128 A 
ATOM      3  C   UNL     1       2.973  -3.650   0.000  0.00  0.00    +0.047 A 
ATOM      4  C   UNL     1       2.973  -2.150   0.000  0.00  0.00    +0.016 A 
ATOM      5  C   UNL     1       4.272  -1.400   0.000  0.00  0.00    +0.037 A 
ATOM     11  C   UNL     1       5.571  -2.150   0.000  0.00  0.00    +0.016 A 
ATOM     12  C   UNL     1       5.571  -3.650   0.000  0.00  0.00    +0.047 A 
BRANCH   5   6
ATOM      6  C   UNL     1       4.272   0.101   0.000  0.00  0.00    +0.242 C 
ATOM      7  N   UNL     1       2.973   0.851   0.000  0.00  0.00    -0.325 N 
ATOM      8  H   UNL     1       2.120   0.358   0.000  0.00  0.00    +0.145 HD
ATOM      9  H   UNL     1       2.973   1.835   0.000  0.00  0.00    +0.145 HD
ATOM     10  O   UNL     1       5.571   0.851   0.000  0.00  0.00    -0.270 OA
ENDBRANCH   5   6
ENDBRANCH   1   2
BRANCH   1  13
ATOM     13  C   UNL     1       5.571  -6.649   0.000  0.00  0.00    +0.128 A 
ATOM     14  C   UNL     1       5.571  -8.149   0.000  0.00  0.00    +0.047 A 
ATOM     15  C   UNL     1       6.870  -8.899   0.000  0.00  0.00    +0.016 A 
ATOM     16  C   UNL     1       8.169  -8.149   0.000  0.00  0.00    +0.037 A 
ATOM     22  C   UNL     1       8.169  -6.649   0.000  0.00  0.00    +0.016 A 
ATOM     23  C   UNL     1       6.870  -5.899   0.000  0.00  0.00    +0.047 A 
BRANCH  16  17
ATOM     17  C   UNL     1       9.468  -8.899   0.000  0.00  0.00    +0.242 C 
ATOM     18  N   UNL     1       9.468 -10.400   0.000  0.00  0.00    -0.325 N 
ATOM     19  H   UNL     1      10.321 -10.892   0.000  0.00  0.00    +0.145 HD
ATOM     20  H   UNL     1       8.616 -10.892   0.000  0.00  0.00    +0.145 HD
ATOM     21  O   UNL     1      10.767  -8.149   0.000  0.00  0.00    -0.270 OA
ENDBRANCH  16  17
ENDBRANCH   1  13
TORSDOF 4