REMARK  Name = 13176
REMARK  7 active torsions:
REMARK  status: ('A' for Active; 'I' for Inactive)
REMARK    1  A    between atoms: N_1  and  C_19
REMARK    2  A    between atoms: C_9  and  C_22
REMARK    3  A    between atoms: C_15  and  C_22
REMARK    4  A    between atoms: C_19  and  C_20
REMARK    5  A    between atoms: C_19  and  C_21
REMARK    6  A    between atoms: C_21  and  C_22
REMARK    7  A    between atoms: C_22  and  C_23
REMARK                            x       y       z     vdW  Elec       q    Type
REMARK                         _______ _______ _______ _____ _____    ______ ____
ROOT
ATOM      4  C   UNL     1       6.422   0.623   0.000  0.00  0.00    +0.108 C 
ENDROOT
BRANCH   4   7
ATOM      7  C   UNL     1       5.123   1.373   0.000  0.00  0.00    -0.023 A 
ATOM      8  C   UNL     1       3.824   0.623   0.000  0.00  0.00    +0.005 A 
ATOM      9  C   UNL     1       2.525   1.373   0.000  0.00  0.00    +0.000 A 
ATOM     10  C   UNL     1       2.525   2.873   0.000  0.00  0.00    +0.000 A 
ATOM     11  C   UNL     1       3.824   3.623   0.000  0.00  0.00    +0.000 A 
ATOM     12  C   UNL     1       5.123   2.873   0.000  0.00  0.00    +0.005 A 
ENDBRANCH   4   7
BRANCH   4  13
ATOM     13  C   UNL     1       7.721  -0.127   0.000  0.00  0.00    -0.023 A 
ATOM     14  C   UNL     1       7.721  -1.627   0.000  0.00  0.00    +0.005 A 
ATOM     15  C   UNL     1       9.020  -2.377   0.000  0.00  0.00    +0.000 A 
ATOM     16  C   UNL     1      10.319  -1.627   0.000  0.00  0.00    +0.000 A 
ATOM     17  C   UNL     1      10.319  -0.127   0.000  0.00  0.00    +0.000 A 
ATOM     18  C   UNL     1       9.020   0.623   0.000  0.00  0.00    +0.005 A 
ENDBRANCH   4  13
BRANCH   4   5
ATOM      5  C   UNL     1       5.672  -0.676   0.000  0.00  0.00    +0.079 C 
ATOM      6  N   UNL     1       4.922  -1.976   0.000  0.00  0.00    -0.195 NA
ENDBRANCH   4   5
BRANCH   4   3
ATOM      3  C   UNL     1       7.172   1.922   0.000  0.00  0.00    +0.050 C 
BRANCH   3   2
ATOM      2  C   UNL     1       8.581   2.435   0.000  0.00  0.00    +0.056 C 
ATOM     19  C   UNL     1       9.730   1.470   0.000  0.00  0.00    +0.024 C 
BRANCH   2   1
ATOM      1  N   UNL     1       8.842   3.912   0.000  0.00  0.00    -0.300 NA
ATOM     20  C   UNL     1      10.251   4.425   0.000  0.00  0.00    +0.084 C 
ATOM     21  C   UNL     1      10.512   5.902   0.000  0.00  0.00    +0.015 C 
ATOM     22  C   UNL     1       9.363   6.866   0.000  0.00  0.00    +0.002 C 
ATOM     23  C   UNL     1       7.953   6.353   0.000  0.00  0.00    +0.015 C 
ATOM     24  C   UNL     1       7.693   4.876   0.000  0.00  0.00    +0.084 C 
ENDBRANCH   2   1
ENDBRANCH   3   2
ENDBRANCH   4   3
TORSDOF 6