REMARK  Name = 13434
REMARK  11 active torsions:
REMARK  status: ('A' for Active; 'I' for Inactive)
REMARK    1  A    between atoms: C_3  and  C_16
REMARK    2  A    between atoms: C_4  and  C_15
REMARK    3  A    between atoms: C_5  and  O_11
REMARK    4  A    between atoms: CA_6  and  C_12
REMARK    5  A    between atoms: C_7  and  C_8
REMARK    6  A    between atoms: C_7  and  C_9
REMARK    7  A    between atoms: C_9  and  O_11
REMARK    8  A    between atoms: C_12  and  OXT_14
REMARK    9  A    between atoms: C_16  and  O_18
REMARK   10  A    between atoms: O_18  and  C_19
REMARK   11  A    between atoms: C_19  and  C_20
REMARK                            x       y       z     vdW  Elec       q    Type
REMARK                         _______ _______ _______ _____ _____    ______ ____
ROOT
ATOM      1  N   UNL     1       0.156   1.770   0.000  0.00  0.00    -0.341 N 
ATOM      2  H   UNL     1       0.543   3.219   0.000  0.00  0.00    +0.166 HD
ATOM      3  CA  UNL     1      -1.244   1.232   0.000  0.00  0.00    +0.168 A 
ATOM      8  C   UNL     1      -1.164  -0.266   0.000  0.00  0.00    +0.167 A 
ATOM     14  C   UNL     1       0.285  -0.654   0.000  0.00  0.00    +0.024 A 
ATOM     15  C   UNL     1       0.823  -2.054   0.000  0.00  0.00    +0.050 C 
ATOM     16  C   UNL     1       1.101   0.605   0.000  0.00  0.00    +0.132 A 
ENDROOT
BRANCH   3   4
ATOM      4  C   UNL     1      -2.502   2.048   0.000  0.00  0.00    +0.357 C 
ATOM      7  O   UNL     1      -3.839   1.366   0.000  0.00  0.00    -0.243 OA
BRANCH   4   5
ATOM      5  OXT UNL     1      -2.425   3.546   0.000  0.00  0.00    -0.476 OA
ATOM      6  HXT UNL     1      -1.590   3.972   0.000  0.00  0.00    +0.295 HD
ENDBRANCH   4   5
ENDBRANCH   3   4
BRANCH  16  17
ATOM     17  C   UNL     1       2.599   0.685   0.000  0.00  0.00    +0.356 C 
ATOM     21  O   UNL     1       3.417  -0.573   0.000  0.00  0.00    -0.243 OA
BRANCH  17  18
ATOM     18  O   UNL     1       3.279   2.021   0.000  0.00  0.00    -0.460 OA
BRANCH  18  19
ATOM     19  C   UNL     1       4.777   2.101   0.000  0.00  0.00    +0.229 C 
ATOM     20  C   UNL     1       5.595   0.844   0.000  0.00  0.00    +0.048 C 
ENDBRANCH  18  19
ENDBRANCH  17  18
ENDBRANCH  16  17
BRANCH   8   9
ATOM      9  O   UNL     1      -2.329  -1.211   0.000  0.00  0.00    -0.423 OA
BRANCH   9  10
ATOM     10  C   UNL     1      -2.094  -2.692   0.000  0.00  0.00    +0.312 C 
ATOM     11  O   UNL     1      -0.693  -3.229   0.000  0.00  0.00    -0.250 OA
BRANCH  10  12
ATOM     12  C   UNL     1      -3.259  -3.637   0.000  0.00  0.00    +0.118 C 
ATOM     13  C   UNL     1      -3.023  -5.119   0.000  0.00  0.00    +0.015 C 
ENDBRANCH  10  12
ENDBRANCH   9  10
ENDBRANCH   8   9
TORSDOF 8