REMARK  Name = 12865
REMARK  6 active torsions:
REMARK  status: ('A' for Active; 'I' for Inactive)
REMARK    1  A    between atoms: C_3  and  O_11
REMARK    2  A    between atoms: C_7  and  C_13
REMARK    3  A    between atoms: O_11  and  C_12
REMARK    4  A    between atoms: C_13  and  C_18
REMARK    5  A    between atoms: C_13  and  O_22
REMARK    6  A    between atoms: C_14  and  C_20
REMARK                            x       y       z     vdW  Elec       q    Type
REMARK                         _______ _______ _______ _____ _____    ______ ____
ROOT
ATOM      1 BR   UNL     1      -9.508  -3.490   0.000  0.00  0.00    -0.113 Br
ATOM      2  H   UNL     1      -7.998  -3.490   0.000  0.00  0.00    +0.113 HD
ENDROOT
TORSDOF 0