REMARK  Name = 13345
REMARK  6 active torsions:
REMARK  status: ('A' for Active; 'I' for Inactive)
REMARK    1  A    between atoms: C_3  and  N_7
REMARK    2  A    between atoms: C_4  and  C_15
REMARK    3  A    between atoms: C_8  and  C_10
REMARK    4  A    between atoms: C_10  and  S_11
REMARK    5  A    between atoms: S_11  and  C_12
REMARK    6  A    between atoms: C_15  and  O_17
REMARK                            x       y       z     vdW  Elec       q    Type
REMARK                         _______ _______ _______ _____ _____    ______ ____
ROOT
ATOM      3  N   UNL     1      -5.946  -0.750   0.000  0.00  0.00    -0.284 N 
ATOM      4  H   UNL     1      -5.094  -1.242   0.000  0.00  0.00    +0.155 HD
ATOM      5  C   UNL     1      -5.946   0.750   0.000  0.00  0.00    +0.228 C 
ATOM     13  O   UNL     1      -4.647   1.500   0.000  0.00  0.00    -0.275 OA
ENDROOT
BRANCH   3   2
ATOM      1  C   UNL     1      -8.544  -0.750   0.000  0.00  0.00    +0.024 A 
ATOM      2  C   UNL     1      -7.245  -1.500   0.000  0.00  0.00    +0.047 A 
ATOM     14  C   UNL     1      -7.245  -3.000   0.000  0.00  0.00    +0.080 A 
ATOM     19  C   UNL     1      -8.544  -3.750   0.000  0.00  0.00    +0.017 A 
ATOM     20  C   UNL     1      -9.843  -3.000   0.000  0.00  0.00    +0.001 A 
ATOM     21  C   UNL     1      -9.843  -1.500   0.000  0.00  0.00    +0.002 A 
BRANCH  14  15
ATOM     15  C   UNL     1      -5.946  -3.750   0.000  0.00  0.00    +0.339 C 
ATOM     18  O   UNL     1      -5.946  -5.250   0.000  0.00  0.00    -0.245 OA
BRANCH  15  16
ATOM     16  O   UNL     1      -4.647  -3.000   0.000  0.00  0.00    -0.477 OA
ATOM     17  H   UNL     1      -3.836  -3.469   0.000  0.00  0.00    +0.295 HD
ENDBRANCH  15  16
ENDBRANCH  14  15
ENDBRANCH   3   2
BRANCH   5   6
ATOM      6  C   UNL     1      -7.245   1.500   0.000  0.00  0.00    +0.174 C 
BRANCH   6   7
ATOM      7  S   UNL     1      -7.245   3.000   0.000  0.00  0.00    -0.059 S 
BRANCH   7   8
ATOM      8  C   UNL     1      -5.946   3.750   0.000  0.00  0.00    +0.270 C 
ATOM      9  N   UNL     1      -4.647   3.000   0.000  0.00  0.00    -0.320 N 
ATOM     10  H   UNL     1      -3.794   3.492   0.000  0.00  0.00    +0.146 HD
ATOM     11  H   UNL     1      -4.647   2.016   0.000  0.00  0.00    +0.146 HD
ATOM     12  O   UNL     1      -5.946   5.250   0.000  0.00  0.00    -0.263 OA
ENDBRANCH   7   8
ENDBRANCH   6   7
ENDBRANCH   5   6
TORSDOF 6