REMARK  Name = 133195
REMARK  4 active torsions:
REMARK  status: ('A' for Active; 'I' for Inactive)
REMARK    1  A    between atoms: C_3  and  N_11
REMARK    2  A    between atoms: C_5  and  S_8
REMARK    3  A    between atoms: N_7  and  S_8
REMARK    4  A    between atoms: N_14  and  C_15
REMARK                            x       y       z     vdW  Elec       q    Type
REMARK                         _______ _______ _______ _____ _____    ______ ____
ROOT
ATOM      1  C   UNL     1      -5.946  -0.750   0.000  0.00  0.00    +0.025 A 
ATOM      2  C   UNL     1      -7.245  -1.500   0.000  0.00  0.00    +0.030 A 
ATOM      3  C   UNL     1      -7.245  -3.000   0.000  0.00  0.00    +0.105 A 
ATOM     10  C   UNL     1      -5.946  -3.750   0.000  0.00  0.00    +0.030 A 
ATOM     11  C   UNL     1      -4.647  -3.000   0.000  0.00  0.00    +0.025 A 
ATOM     12  C   UNL     1      -4.647  -1.500   0.000  0.00  0.00    +0.035 A 
ENDROOT
BRANCH  12  13
ATOM     13  N   UNL     1      -3.348  -0.750   0.000  0.00  0.00    -0.269 N 
ATOM     14  H   UNL     1      -3.348   0.234   0.000  0.00  0.00    +0.156 HD
ATOM     15  C   UNL     1      -2.049  -1.500   0.000  0.00  0.00    +0.304 C 
ATOM     16  N   UNL     1      -2.049  -3.000   0.000  0.00  0.00    -0.302 N 
ATOM     17  H   UNL     1      -2.902  -3.492   0.000  0.00  0.00    +0.150 HD
ATOM     18  C   UNL     1      -0.750  -3.750   0.000  0.00  0.00    +0.129 C 
ATOM     19  O   UNL     1      -0.750  -0.750   0.000  0.00  0.00    -0.253 OA
ENDBRANCH  12  13
BRANCH   3   4
ATOM      4  S   UNL     1      -8.544  -3.750   0.000  0.00  0.00    +0.056 S 
ATOM      5  O   UNL     1      -7.794  -5.049   0.000  0.00  0.00    -0.153 OA
ATOM      6  O   UNL     1      -9.294  -2.451   0.000  0.00  0.00    -0.153 OA
BRANCH   4   7
ATOM      7  N   UNL     1      -9.843  -4.500   0.000  0.00  0.00    -0.204 NA
ATOM      8  H   UNL     1      -9.843  -5.520   0.000  0.00  0.00    +0.144 HD
ATOM      9  H   UNL     1     -10.727  -3.990   0.000  0.00  0.00    +0.144 HD
ENDBRANCH   4   7
ENDBRANCH   3   4
TORSDOF 3