REMARK  Name = 127886
REMARK  7 active torsions:
REMARK  status: ('A' for Active; 'I' for Inactive)
REMARK    1  A    between atoms: C_7  and  C_11
REMARK    2  A    between atoms: C_11  and  C_12
REMARK    3  A    between atoms: C_12  and  C_13
REMARK    4  A    between atoms: C_12  and  C_15
REMARK    5  A    between atoms: C_15  and  O_17
REMARK    6  A    between atoms: O_17  and  C_18
REMARK    7  A    between atoms: C_18  and  C_19
REMARK                            x       y       z     vdW  Elec       q    Type
REMARK                         _______ _______ _______ _____ _____    ______ ____
ROOT
ATOM      8  C   UNL     1      -6.160  -1.233   0.000  0.00  0.00    +0.052 C 
ATOM      9  N   UNL     1      -7.164  -2.348   0.000  0.00  0.00    -0.306 NA
ATOM     10  H   UNL     1      -8.126  -2.143   0.000  0.00  0.00    +0.186 HD
ENDROOT
BRANCH   8   7
ATOM      1  C   UNL     1     -10.648   2.157   0.000  0.00  0.00    +0.004 C 
ATOM      2  C   UNL     1      -9.349   2.907   0.000  0.00  0.00    +0.045 C 
ATOM      3  C   UNL     1      -8.050   2.157   0.000  0.00  0.00    +0.181 C 
ATOM      4  O   UNL     1      -6.623   2.620   0.000  0.00  0.00    -0.461 OA
ATOM      5  C   UNL     1      -5.742   1.407   0.000  0.00  0.00    +0.316 C 
ATOM      6  O   UNL     1      -4.242   1.407   0.000  0.00  0.00    -0.250 OA
ATOM      7  C   UNL     1      -6.623   0.193   0.000  0.00  0.00    +0.150 C 
ATOM     19  C   UNL     1      -8.050   0.657   0.000  0.00  0.00    +0.049 C 
ATOM     20  C   UNL     1      -9.349  -0.093   0.000  0.00  0.00    +0.008 C 
ATOM     21  C   UNL     1     -10.648   0.657   0.000  0.00  0.00    +0.001 C 
ENDBRANCH   8   7
BRANCH   8  11
ATOM     11  C   UNL     1      -4.693  -1.545   0.000  0.00  0.00    +0.244 C 
BRANCH  11  12
ATOM     12  C   UNL     1      -4.229  -2.972   0.000  0.00  0.00    +0.330 C 
ATOM     16  O   UNL     1      -2.762  -3.284   0.000  0.00  0.00    -0.249 OA
BRANCH  12  13
ATOM     13  O   UNL     1      -5.233  -4.087   0.000  0.00  0.00    -0.464 OA
BRANCH  13  14
ATOM     14  C   UNL     1      -6.700  -3.775   0.000  0.00  0.00    +0.229 C 
ATOM     15  C   UNL     1      -7.704  -4.889   0.000  0.00  0.00    +0.048 C 
ENDBRANCH  13  14
ENDBRANCH  12  13
ENDBRANCH  11  12
BRANCH  11  17
ATOM     17  C   UNL     1      -3.689  -0.430   0.000  0.00  0.00    +0.083 C 
ATOM     18  N   UNL     1      -2.685   0.684   0.000  0.00  0.00    -0.195 NA
ENDBRANCH  11  17
ENDBRANCH   8  11
TORSDOF 6