REMARK  Name = 133002
REMARK  3 active torsions:
REMARK  status: ('A' for Active; 'I' for Inactive)
REMARK    1  A    between atoms: P_3  and  O_5
REMARK    2  A    between atoms: O_5  and  C_8
REMARK    3  A    between atoms: C_9  and  N_15
REMARK                            x       y       z     vdW  Elec       q    Type
REMARK                         _______ _______ _______ _____ _____    ______ ____
ROOT
ATOM      8  C   UNL     1      -3.424  -6.326   0.000  0.00  0.00    +0.130 A 
ATOM      9  C   UNL     1      -1.946  -6.586   0.000  0.00  0.00    +0.053 A 
ATOM     10  C   UNL     1      -0.982  -5.437   0.000  0.00  0.00    +0.088 A 
ATOM     11  C   UNL     1      -1.495  -4.027   0.000  0.00  0.00    +0.273 A 
ATOM     15  C   UNL     1      -2.972  -3.767   0.000  0.00  0.00    +0.088 A 
ATOM     16  C   UNL     1      -3.937  -4.916   0.000  0.00  0.00    +0.053 A 
ENDROOT
BRANCH  11  12
ATOM     12  N   UNL     1      -0.531  -2.878   0.000  0.00  0.00    +0.080 N 
ATOM     13  O   UNL     1       0.946  -3.139   0.000  0.00  0.00    +0.041 OA
ATOM     14  O   UNL     1      -1.044  -1.469   0.000  0.00  0.00    -0.576 OA
ENDBRANCH  11  12
BRANCH   8   7
ATOM      7  O   UNL     1      -4.388  -7.475   0.000  0.00  0.00    -0.422 OA
BRANCH   7   6
ATOM      1  O   UNL     1      -7.164  -6.464   0.000  0.00  0.00    -0.295 OA
ATOM      2  C   UNL     1      -8.463  -7.214   0.000  0.00  0.00    +0.199 C 
ATOM      3  C   UNL     1      -8.463  -8.714   0.000  0.00  0.00    +0.189 C 
ATOM      4  O   UNL     1      -7.164  -9.464   0.000  0.00  0.00    -0.364 OA
ATOM      5  C   UNL     1      -5.865  -8.714   0.000  0.00  0.00    +0.299 C 
ATOM      6  P   UNL     1      -5.865  -7.214   0.000  0.00  0.00    +0.407 P 
ATOM     17  O   UNL     1      -5.352  -5.805   0.000  0.00  0.00    -0.242 OA
ENDBRANCH   7   6
ENDBRANCH   8   7
TORSDOF 3