REMARK  Name = 134785
REMARK  5 active torsions:
REMARK  status: ('A' for Active; 'I' for Inactive)
REMARK    1  A    between atoms: N_2  and  C_13
REMARK    2  A    between atoms: C_4  and  C_14
REMARK    3  A    between atoms: C_10  and  C_11
REMARK    4  A    between atoms: C_11  and  C_12
REMARK    5  A    between atoms: C_12  and  C_13
REMARK                            x       y       z     vdW  Elec       q    Type
REMARK                         _______ _______ _______ _____ _____    ______ ____
ROOT
ATOM      1  O   UNL     1      -2.476   0.712   0.000  0.00  0.00    -0.276 OA
ATOM      2  C   UNL     1      -1.250  -0.152   0.000  0.00  0.00    +0.218 C 
ATOM      3  C   UNL     1      -1.229  -1.652   0.000  0.00  0.00    +0.104 C 
ATOM      4  C   UNL     1       0.204  -2.096   0.000  0.00  0.00    +0.050 C 
ATOM      5  C   UNL     1       1.103  -3.297   0.000  0.00  0.00    +0.036 C 
ATOM      6  C   UNL     1       2.523  -2.813   0.000  0.00  0.00    +0.163 C 
ATOM      7  O   UNL     1       2.502  -1.313   0.000  0.00  0.00    -0.356 OA
ATOM      8  C   UNL     1       1.069  -0.870   0.000  0.00  0.00    +0.139 C 
ATOM      9  C   UNL     1       1.933   0.356   0.000  0.00  0.00    +0.064 C 
ATOM     10  N   UNL     1       0.170   0.331   0.000  0.00  0.00    -0.273 N 
ENDROOT
BRANCH  10  11
ATOM     11  C   UNL     1       0.613   1.764   0.000  0.00  0.00    +0.110 C 
BRANCH  11  12
ATOM     12  C   UNL     1      -0.406   2.865   0.000  0.00  0.00    +0.019 C 
BRANCH  12  13
ATOM     13  C   UNL     1      -1.869   2.532   0.000  0.00  0.00    -0.002 C 
ATOM     14  C   UNL     1      -2.888   3.632   0.000  0.00  0.00    +0.004 C 
ENDBRANCH  12  13
ENDBRANCH  11  12
ENDBRANCH  10  11
TORSDOF 3