REMARK  Name = 130872
REMARK  5 active torsions:
REMARK  status: ('A' for Active; 'I' for Inactive)
REMARK    1  A    between atoms: C_4  and  C_15
REMARK    2  A    between atoms: C_6  and  O_13
REMARK    3  A    between atoms: C_12  and  C_18
REMARK    4  A    between atoms: O_13  and  C_14
REMARK    5  A    between atoms: C_15  and  C_16
REMARK                            x       y       z     vdW  Elec       q    Type
REMARK                         _______ _______ _______ _____ _____    ______ ____
ROOT
ATOM      7  C   UNL     1      -2.223  -6.649   0.000  0.00  0.00    +0.047 C 
ATOM      8  C   UNL     1      -3.522  -5.899   0.000  0.00  0.00    +0.061 C 
ENDROOT
BRANCH   7   6
ATOM      1  N   UNL     1      -0.924  -4.399   0.000  0.00  0.00    -0.256 NA
ATOM      2  C   UNL     1       0.375  -3.650   0.000  0.00  0.00    +0.111 A 
ATOM      3  C   UNL     1       1.674  -4.399   0.000  0.00  0.00    +0.020 A 
ATOM      4  C   UNL     1       1.674  -5.899   0.000  0.00  0.00    +0.004 A 
ATOM      5  C   UNL     1       0.375  -6.649   0.000  0.00  0.00    +0.028 A 
ATOM      6  C   UNL     1      -0.924  -5.899   0.000  0.00  0.00    +0.065 A 
ENDBRANCH   7   6
BRANCH   8  11
ATOM     11  C   UNL     1      -4.821  -6.649   0.000  0.00  0.00    -0.007 A 
ATOM     12  C   UNL     1      -4.821  -8.149   0.000  0.00  0.00    +0.013 A 
ATOM     13  C   UNL     1      -6.120  -8.899   0.000  0.00  0.00    +0.046 A 
ATOM     14  C   UNL     1      -7.419  -8.149   0.000  0.00  0.00    +0.120 A 
ATOM     17  C   UNL     1      -7.419  -6.649   0.000  0.00  0.00    +0.046 A 
ATOM     18  C   UNL     1      -6.120  -5.899   0.000  0.00  0.00    +0.013 A 
BRANCH  14  15
ATOM     15  O   UNL     1      -8.718  -8.899   0.000  0.00  0.00    -0.495 OA
ATOM     16  C   UNL     1     -10.017  -8.149   0.000  0.00  0.00    +0.277 C 
ENDBRANCH  14  15
ENDBRANCH   8  11
BRANCH   8   9
ATOM      9  C   UNL     1      -3.522  -4.399   0.000  0.00  0.00    +0.100 C 
ATOM     10  N   UNL     1      -3.522  -2.900   0.000  0.00  0.00    -0.191 NA
ENDBRANCH   8   9
TORSDOF 4