REMARK  Name = 127133
REMARK  5 active torsions:
REMARK  status: ('A' for Active; 'I' for Inactive)
REMARK    1  A    between atoms: C_15  and  N_29
REMARK    2  A    between atoms: C_17  and  C_30
REMARK    3  A    between atoms: C_18  and  C_21
REMARK    4  A    between atoms: C_25  and  C_32
REMARK    5  A    between atoms: C_32  and  O_34
REMARK                            x       y       z     vdW  Elec       q    Type
REMARK                         _______ _______ _______ _____ _____    ______ ____
ROOT
ATOM      6  N   UNL     1      -2.324  -8.524   0.000  0.00  0.00    -0.281 N 
ATOM      7  H   UNL     1      -3.176  -8.032   0.000  0.00  0.00    +0.155 HD
ATOM      8  C   UNL     1      -2.324 -10.025   0.000  0.00  0.00    +0.249 C 
ATOM      9  O   UNL     1      -3.623 -10.775   0.000  0.00  0.00    -0.270 OA
ENDROOT
BRANCH   6   5
ATOM      1  H   UNL     1      -1.025  -3.275   0.000  0.00  0.00    +0.169 HD
ATOM      2  N   UNL     1       0.275  -4.024   0.000  0.00  0.00    -0.322 N 
ATOM      3  C   UNL     1       0.275  -5.524   0.000  0.00  0.00    +0.052 A 
ATOM      4  C   UNL     1      -1.025  -6.274   0.000  0.00  0.00    +0.049 A 
ATOM      5  C   UNL     1      -1.025  -7.774   0.000  0.00  0.00    +0.036 A 
ATOM     26  C   UNL     1       0.275  -8.524   0.000  0.00  0.00    +0.024 A 
ATOM     27  C   UNL     1       1.574  -7.774   0.000  0.00  0.00    +0.012 A 
ATOM     28  C   UNL     1       1.574  -6.274   0.000  0.00  0.00    +0.006 A 
ATOM     29  C   UNL     1       2.873  -5.524   0.000  0.00  0.00    -0.004 A 
ATOM     30  C   UNL     1       4.172  -6.274   0.000  0.00  0.00    +0.009 A 
ATOM     31  C   UNL     1       5.471  -5.524   0.000  0.00  0.00    +0.001 A 
ATOM     32  C   UNL     1       5.471  -4.024   0.000  0.00  0.00    +0.001 A 
ATOM     33  C   UNL     1       4.172  -3.275   0.000  0.00  0.00    +0.014 A 
ATOM     34  C   UNL     1       2.873  -4.024   0.000  0.00  0.00    +0.047 A 
ATOM     35  C   UNL     1       1.573  -3.275   0.000  0.00  0.00    +0.257 A 
ATOM     36  O   UNL     1       1.574  -1.775   0.000  0.00  0.00    -0.267 OA
ENDBRANCH   6   5
BRANCH   8  10
ATOM     10  C   UNL     1      -1.025 -10.775   0.000  0.00  0.00    +0.045 A 
ATOM     11  C   UNL     1       0.275 -10.025   0.000  0.00  0.00    +0.013 A 
ATOM     12  C   UNL     1       1.574 -10.775   0.000  0.00  0.00    +0.001 A 
ATOM     13  C   UNL     1       1.574 -12.275   0.000  0.00  0.00    +0.001 A 
ATOM     14  C   UNL     1       0.275 -13.025   0.000  0.00  0.00    +0.009 A 
ATOM     15  C   UNL     1      -1.025 -12.275   0.000  0.00  0.00    -0.005 A 
BRANCH  15  16
ATOM     16  C   UNL     1      -2.324 -13.025   0.000  0.00  0.00    -0.003 A 
ATOM     17  C   UNL     1      -3.623 -12.275   0.000  0.00  0.00    +0.009 A 
ATOM     18  C   UNL     1      -4.922 -13.025   0.000  0.00  0.00    +0.001 A 
ATOM     19  C   UNL     1      -4.922 -14.525   0.000  0.00  0.00    +0.001 A 
ATOM     20  C   UNL     1      -3.623 -15.275   0.000  0.00  0.00    +0.015 A 
ATOM     21  C   UNL     1      -2.324 -14.525   0.000  0.00  0.00    +0.067 A 
BRANCH  21  22
ATOM     22  C   UNL     1      -1.025 -15.275   0.000  0.00  0.00    +0.337 C 
ATOM     25  O   UNL     1      -1.025 -16.775   0.000  0.00  0.00    -0.245 OA
BRANCH  22  23
ATOM     23  O   UNL     1       0.275 -14.525   0.000  0.00  0.00    -0.477 OA
ATOM     24  H   UNL     1       1.086 -14.993   0.000  0.00  0.00    +0.295 HD
ENDBRANCH  22  23
ENDBRANCH  21  22
ENDBRANCH  15  16
ENDBRANCH   8  10
TORSDOF 5