REMARK  Name = 128068
REMARK  3 active torsions:
REMARK  status: ('A' for Active; 'I' for Inactive)
REMARK    1  A    between atoms: C_1  and  O_13
REMARK    2  A    between atoms: C_3  and  C_14
REMARK    3  A    between atoms: C_5  and  C_11
REMARK                            x       y       z     vdW  Elec       q    Type
REMARK                         _______ _______ _______ _____ _____    ______ ____
ROOT
ATOM      1  C   UNL     1      -3.348  -2.250   0.000  0.00  0.00    +0.127 A 
ATOM      4  C   UNL     1      -4.647  -3.000   0.000  0.00  0.00    +0.025 A 
ATOM      5  C   UNL     1      -5.946  -2.250   0.000  0.00  0.00    +0.031 A 
ATOM      6  C   UNL     1      -7.245  -3.000   0.000  0.00  0.00    +0.052 A 
ATOM      9  C   UNL     1      -7.245  -4.500   0.000  0.00  0.00    +0.019 A 
ATOM     10  C   UNL     1      -5.946  -5.250   0.000  0.00  0.00    +0.010 A 
ATOM     11  C   UNL     1      -4.647  -4.500   0.000  0.00  0.00    -0.014 A 
ATOM     12  C   UNL     1      -3.348  -5.250   0.000  0.00  0.00    +0.009 A 
ATOM     13  C   UNL     1      -2.049  -4.500   0.000  0.00  0.00    +0.007 A 
ATOM     14  C   UNL     1      -2.049  -3.000   0.000  0.00  0.00    -0.008 A 
ATOM     15  C   UNL     1      -0.750  -2.250   0.000  0.00  0.00    +0.047 C 
ENDROOT
BRANCH   1   2
ATOM      2  O   UNL     1      -3.348  -0.750   0.000  0.00  0.00    -0.506 OA
ATOM      3  H   UNL     1      -2.537  -0.281   0.000  0.00  0.00    +0.292 HD
ENDBRANCH   1   2
BRANCH   6   7
ATOM      7  C   UNL     1      -8.544  -2.250   0.000  0.00  0.00    +0.099 C 
ATOM      8  N   UNL     1      -9.843  -1.500   0.000  0.00  0.00    -0.191 NA
ENDBRANCH   6   7
TORSDOF 2