REMARK  Name = 130801
REMARK  6 active torsions:
REMARK  status: ('A' for Active; 'I' for Inactive)
REMARK    1  A    between atoms: C_1  and  C_8
REMARK    2  A    between atoms: C_1  and  N_18
REMARK    3  A    between atoms: C_6  and  O_19
REMARK    4  A    between atoms: C_9  and  N_18
REMARK    5  A    between atoms: C_13  and  O_20
REMARK    6  A    between atoms: O_20  and  C_21
REMARK                            x       y       z     vdW  Elec       q    Type
REMARK                         _______ _______ _______ _____ _____    ______ ____
ROOT
ATOM      4  C   UNL     1      -5.250  -4.647   0.000  0.00  0.00    +0.057 A 
ATOM      5  C   UNL     1      -4.500  -3.348   0.000  0.00  0.00    +0.092 A 
ATOM      6  C   UNL     1      -3.000  -3.348   0.000  0.00  0.00    +0.006 A 
ATOM      7  C   UNL     1      -2.250  -4.647   0.000  0.00  0.00    +0.055 A 
ATOM      8  C   UNL     1      -3.000  -5.946   0.000  0.00  0.00    +0.123 A 
ATOM     11  C   UNL     1      -2.250  -2.049   0.000  0.00  0.00    +0.011 A 
ATOM     12  C   UNL     1      -3.000  -0.750   0.000  0.00  0.00    +0.020 A 
ATOM     13  C   UNL     1      -4.500  -0.750   0.000  0.00  0.00    +0.111 A 
ATOM     14  N   UNL     1      -5.250  -2.049   0.000  0.00  0.00    -0.253 NA
ATOM     15  C   UNL     1      -4.500  -5.946   0.000  0.00  0.00    +0.070 A 
ENDROOT
BRANCH   4   2
ATOM      2  N   UNL     1      -6.750  -4.647   0.000  0.00  0.00    -0.338 N 
ATOM      3  H   UNL     1      -7.242  -5.500   0.000  0.00  0.00    +0.146 HD
BRANCH   2   1
ATOM      1  C   UNL     1      -7.500  -3.348   0.000  0.00  0.00    +0.140 C 
BRANCH   1  16
ATOM     16  C   UNL     1      -9.000  -3.348   0.000  0.00  0.00    +0.011 A 
ATOM     17  C   UNL     1      -9.750  -4.647   0.000  0.00  0.00    +0.009 A 
ATOM     18  C   UNL     1     -11.250  -4.647   0.000  0.00  0.00    +0.001 A 
ATOM     19  C   UNL     1     -12.000  -3.348   0.000  0.00  0.00    +0.004 A 
ATOM     20  C   UNL     1     -11.250  -2.049   0.000  0.00  0.00    +0.046 A 
ATOM     21  C   UNL     1      -9.750  -2.049   0.000  0.00  0.00    +0.122 A 
BRANCH  21  22
ATOM     22  O   UNL     1      -9.000  -0.750   0.000  0.00  0.00    -0.506 OA
ATOM     23  H   UNL     1      -8.063  -0.750   0.000  0.00  0.00    +0.292 HD
ENDBRANCH  21  22
ENDBRANCH   1  16
ENDBRANCH   2   1
ENDBRANCH   4   2
BRANCH   8   9
ATOM      9  O   UNL     1      -2.250  -7.245   0.000  0.00  0.00    -0.495 OA
ATOM     10  C   UNL     1      -0.750  -7.245   0.000  0.00  0.00    +0.277 C 
ENDBRANCH   8   9
TORSDOF 5