REMARK  Name = 13151
REMARK  4 active torsions:
REMARK  status: ('A' for Active; 'I' for Inactive)
REMARK    1  A    between atoms: C_3  and  C_18
REMARK    2  A    between atoms: C_9  and  C_15
REMARK    3  A    between atoms: C_12  and  O_14
REMARK    4  A    between atoms: C_15  and  C_17
REMARK                            x       y       z     vdW  Elec       q    Type
REMARK                         _______ _______ _______ _____ _____    ______ ____
ROOT
ATOM     10  C   UNL     1      -7.245  -2.250   0.000  0.00  0.00    +0.186 C 
ATOM     11  O   UNL     1      -7.245  -0.750   0.000  0.00  0.00    -0.287 OA
ENDROOT
BRANCH  10  12
ATOM     12  C   UNL     1      -8.544  -3.000   0.000  0.00  0.00    +0.022 A 
ATOM     13  C   UNL     1      -8.544  -4.500   0.000  0.00  0.00    +0.015 A 
ATOM     14  C   UNL     1      -9.843  -5.250   0.000  0.00  0.00    +0.046 A 
ATOM     15  C   UNL     1     -11.142  -4.500   0.000  0.00  0.00    +0.117 A 
ATOM     18  C   UNL     1     -11.142  -3.000   0.000  0.00  0.00    +0.046 A 
ATOM     19  C   UNL     1      -9.843  -2.250   0.000  0.00  0.00    +0.015 A 
BRANCH  15  16
ATOM     16  O   UNL     1     -12.441  -5.250   0.000  0.00  0.00    -0.507 OA
ATOM     17  H   UNL     1     -13.253  -4.782   0.000  0.00  0.00    +0.292 HD
ENDBRANCH  15  16
ENDBRANCH  10  12
BRANCH  10   9
ATOM      8  C   UNL     1      -4.647  -2.250   0.000  0.00  0.00    +0.013 C 
ATOM      9  C   UNL     1      -5.946  -3.000   0.000  0.00  0.00    +0.052 C 
BRANCH   8   7
ATOM      1 CL   UNL     1      -4.647  -5.250   0.000  0.00  0.00    -0.083 Cl
ATOM      2  C   UNL     1      -3.348  -4.500   0.000  0.00  0.00    +0.048 A 
ATOM      3  C   UNL     1      -2.049  -5.250   0.000  0.00  0.00    +0.020 A 
ATOM      4  C   UNL     1      -0.750  -4.500   0.000  0.00  0.00    +0.001 A 
ATOM      5  C   UNL     1      -0.750  -3.000   0.000  0.00  0.00    +0.001 A 
ATOM      6  C   UNL     1      -2.049  -2.250   0.000  0.00  0.00    +0.009 A 
ATOM      7  C   UNL     1      -3.348  -3.000   0.000  0.00  0.00    -0.007 A 
ENDBRANCH   8   7
ENDBRANCH  10   9
TORSDOF 4