REMARK  Name = 134199
REMARK  5 active torsions:
REMARK  status: ('A' for Active; 'I' for Inactive)
REMARK    1  A    between atoms: N_4  and  C_7
REMARK    2  A    between atoms: N_5  and  C_12
REMARK    3  A    between atoms: C_10  and  O_17
REMARK    4  A    between atoms: C_14  and  S_18
REMARK    5  A    between atoms: S_18  and  N_21
REMARK                            x       y       z     vdW  Elec       q    Type
REMARK                         _______ _______ _______ _____ _____    ______ ____
ROOT
ATOM      7  N   UNL     1       2.324  -1.025   0.000  0.00  0.00    -0.144 NA
ATOM      8  N   UNL     1       2.324  -2.525   0.000  0.00  0.00    -0.149 NA
ENDROOT
BRANCH   7   4
ATOM      1  H   UNL     1      -2.873  -1.025   0.000  0.00  0.00    +0.172 HD
ATOM      2  N   UNL     1      -1.574  -0.275   0.000  0.00  0.00    -0.292 N 
ATOM      3  C   UNL     1      -0.275  -1.025   0.000  0.00  0.00    +0.279 A 
ATOM      4  C   UNL     1       1.025  -0.275   0.000  0.00  0.00    +0.150 A 
ATOM      5  C   UNL     1       1.025   1.226   0.000  0.00  0.00    +0.040 A 
ATOM      6  C   UNL     1      -0.275   1.976   0.000  0.00  0.00    +0.067 A 
ATOM     21  O   UNL     1      -0.275  -2.525   0.000  0.00  0.00    -0.265 OA
ATOM     22  C   UNL     1      -1.574   1.226   0.000  0.00  0.00    +0.193 A 
BRANCH  22  23
ATOM     23  O   UNL     1      -2.873   1.976   0.000  0.00  0.00    -0.494 OA
ATOM     24  H   UNL     1      -2.873   2.912   0.000  0.00  0.00    +0.294 HD
ENDBRANCH  22  23
ENDBRANCH   7   4
BRANCH   8   9
ATOM      9  C   UNL     1       3.623  -3.275   0.000  0.00  0.00    +0.086 A 
ATOM     10  C   UNL     1       3.623  -4.774   0.000  0.00  0.00    +0.031 A 
ATOM     11  C   UNL     1       4.922  -5.524   0.000  0.00  0.00    +0.030 A 
ATOM     12  C   UNL     1       6.221  -4.774   0.000  0.00  0.00    +0.105 A 
ATOM     19  C   UNL     1       6.221  -3.275   0.000  0.00  0.00    +0.030 A 
ATOM     20  C   UNL     1       4.922  -2.525   0.000  0.00  0.00    +0.031 A 
BRANCH  12  13
ATOM     13  S   UNL     1       7.520  -5.524   0.000  0.00  0.00    +0.056 S 
ATOM     17  O   UNL     1       8.270  -4.226   0.000  0.00  0.00    -0.153 OA
ATOM     18  O   UNL     1       6.770  -6.824   0.000  0.00  0.00    -0.153 OA
BRANCH  13  14
ATOM     14  N   UNL     1       8.819  -6.274   0.000  0.00  0.00    -0.204 NA
ATOM     15  H   UNL     1       9.702  -5.764   0.000  0.00  0.00    +0.144 HD
ATOM     16  H   UNL     1       8.819  -7.294   0.000  0.00  0.00    +0.144 HD
ENDBRANCH  13  14
ENDBRANCH  12  13
ENDBRANCH   8   9
TORSDOF 5