REMARK  Name = 129260
REMARK  2 active torsions:
REMARK  status: ('A' for Active; 'I' for Inactive)
REMARK    1  A    between atoms: C_9  and  N_16
REMARK    2  A    between atoms: C_11  and  C_15
REMARK                            x       y       z     vdW  Elec       q    Type
REMARK                         _______ _______ _______ _____ _____    ______ ____
ROOT
ATOM      8  N   UNL     1       1.589  -7.747   0.000  0.00  0.00    -0.292 N 
ATOM      9  H   UNL     1       2.442  -8.240   0.000  0.00  0.00    +0.154 HD
ATOM     10  C   UNL     1       1.589  -6.247   0.000  0.00  0.00    +0.184 A 
ATOM     11  S   UNL     1       0.376  -5.366   0.000  0.00  0.00    -0.026 S 
ATOM     12  C   UNL     1       0.839  -3.939   0.000  0.00  0.00    +0.142 A 
ATOM     13  S   UNL     1      -0.043  -2.726   0.000  0.00  0.00    -0.024 S 
ATOM     14  N   UNL     1       2.339  -3.939   0.000  0.00  0.00    -0.262 N 
ATOM     15  H   UNL     1       3.221  -2.726   0.000  0.00  0.00    +0.190 HD
ATOM     16  N   UNL     1       2.803  -5.366   0.000  0.00  0.00    -0.150 NA
ENDROOT
BRANCH   8   7
ATOM      1  F   UNL     1      -3.607  -7.747   0.000  0.00  0.00    -0.205 F 
ATOM      2  C   UNL     1      -2.308  -8.497   0.000  0.00  0.00    +0.128 A 
ATOM      3  C   UNL     1      -2.308  -9.997   0.000  0.00  0.00    -0.015 A 
ATOM      4  C   UNL     1      -3.607 -10.747   0.000  0.00  0.00    +0.047 C 
ATOM      5  C   UNL     1      -1.009 -10.747   0.000  0.00  0.00    +0.008 A 
ATOM      6  C   UNL     1       0.290  -9.997   0.000  0.00  0.00    +0.024 A 
ATOM      7  C   UNL     1       0.290  -8.497   0.000  0.00  0.00    +0.036 A 
ATOM     17  C   UNL     1      -1.009  -7.747   0.000  0.00  0.00    +0.062 A 
ENDBRANCH   8   7
TORSDOF 1