REMARK  Name = 130847
REMARK  2 active torsions:
REMARK  status: ('A' for Active; 'I' for Inactive)
REMARK    1  A    between atoms: C_9  and  C_12
REMARK    2  A    between atoms: C_15  and  C_22
REMARK                            x       y       z     vdW  Elec       q    Type
REMARK                         _______ _______ _______ _____ _____    ______ ____
ROOT
ATOM      7  C   UNL     1       5.915   4.674   0.000  0.00  0.00    +0.050 A 
ATOM      8  C   UNL     1       5.915   6.174   0.000  0.00  0.00    +0.013 A 
ATOM      9  C   UNL     1       4.616   6.924   0.000  0.00  0.00    +0.011 A 
ATOM     10  C   UNL     1       4.616   8.424   0.000  0.00  0.00    +0.001 A 
ATOM     11  C   UNL     1       5.915   9.174   0.000  0.00  0.00    +0.002 A 
ATOM     12  C   UNL     1       7.214   8.424   0.000  0.00  0.00    +0.028 A 
ATOM     13  C   UNL     1       7.214   6.924   0.000  0.00  0.00    +0.072 A 
ATOM     14  N   UNL     1       8.513   6.174   0.000  0.00  0.00    -0.247 NA
ATOM     15  C   UNL     1       8.513   4.674   0.000  0.00  0.00    +0.072 A 
ATOM     22  C   UNL     1       7.214   3.924   0.000  0.00  0.00    +0.042 A 
ENDROOT
BRANCH   7   6
ATOM      1  O   UNL     1       0.750   3.576   0.000  0.00  0.00    -0.221 OA
ATOM      2  C   UNL     1       2.242   3.419   0.000  0.00  0.00    +0.436 A 
ATOM      3  N   UNL     1       2.992   2.120   0.000  0.00  0.00    -0.208 N 
ATOM      4  H   UNL     1       2.382   0.750   0.000  0.00  0.00    +0.195 HD
ATOM      5  N   UNL     1       4.459   2.432   0.000  0.00  0.00    -0.130 NA
ATOM      6  C   UNL     1       4.616   3.924   0.000  0.00  0.00    +0.250 A 
ATOM     23  O   UNL     1       3.245   4.534   0.000  0.00  0.00    -0.388 OA
ENDBRANCH   7   6
BRANCH  15  16
ATOM     16  C   UNL     1       9.812   3.924   0.000  0.00  0.00    +0.000 A 
ATOM     17  C   UNL     1       9.812   2.424   0.000  0.00  0.00    +0.010 A 
ATOM     18  C   UNL     1      11.111   1.674   0.000  0.00  0.00    +0.001 A 
ATOM     19  C   UNL     1      12.410   2.424   0.000  0.00  0.00    +0.000 A 
ATOM     20  C   UNL     1      12.410   3.924   0.000  0.00  0.00    +0.001 A 
ATOM     21  C   UNL     1      11.111   4.674   0.000  0.00  0.00    +0.010 A 
ENDBRANCH  15  16
TORSDOF 2