REMARK  Name = 133071
REMARK  12 active torsions:
REMARK  status: ('A' for Active; 'I' for Inactive)
REMARK    1  A    between atoms: O_3  and  C_6
REMARK    2  A    between atoms: O_3  and  C_17
REMARK    3  A    between atoms: N_4  and  C_11
REMARK    4  A    between atoms: C_12  and  C_20
REMARK    5  A    between atoms: C_12  and  C_21
REMARK    6  A    between atoms: C_17  and  C_18
REMARK    7  A    between atoms: C_18  and  C_19
REMARK    8  A    between atoms: C_19  and  O_22
REMARK    9  A    between atoms: O_22  and  C_23
REMARK   10  A    between atoms: C_29  and  C_30
REMARK   11  A    between atoms: C_29  and  S_31
REMARK   12  A    between atoms: S_31  and  O_34
REMARK                            x       y       z     vdW  Elec       q    Type
REMARK                         _______ _______ _______ _____ _____    ______ ____
ROOT
ATOM      2  S   UNL     1      -5.218  12.879   0.000  0.00  0.00    +0.079 S 
ATOM      5  O   UNL     1      -3.718  12.879   0.000  0.00  0.00    -0.147 OA
ATOM      6  O   UNL     1      -6.718  12.879   0.000  0.00  0.00    -0.147 OA
ENDROOT
BRANCH   2   1
ATOM      1  C   UNL     1      -5.218  14.379   0.000  0.00  0.00    +0.194 C 
ATOM      7  C   UNL     1      -3.919  15.129   0.000  0.00  0.00    +0.030 C 
ENDBRANCH   2   1
BRANCH   2   3
ATOM      3  O   UNL     1      -5.218  11.379   0.000  0.00  0.00    -0.254 OA
ATOM      4  H   UNL     1      -6.058  10.894   0.000  0.00  0.00    +0.244 HD
ENDBRANCH   2   3
TORSDOF 2