REMARK  Name = 13316
REMARK  4 active torsions:
REMARK  status: ('A' for Active; 'I' for Inactive)
REMARK    1  A    between atoms: C_2  and  C_12
REMARK    2  A    between atoms: C_2  and  C_19
REMARK    3  A    between atoms: C_2  and  O_24
REMARK    4  A    between atoms: C_6  and  C_9
REMARK                            x       y       z     vdW  Elec       q    Type
REMARK                         _______ _______ _______ _____ _____    ______ ____
ROOT
ATOM      1  N   UNL     1       3.522   8.899   0.000  0.00  0.00    -0.247 NA
ATOM      2  C   UNL     1       2.223   8.149   0.000  0.00  0.00    +0.072 A 
ATOM      3  C   UNL     1       0.924   8.899   0.000  0.00  0.00    +0.028 A 
ATOM      4  C   UNL     1      -0.375   8.149   0.000  0.00  0.00    +0.002 A 
ATOM      5  C   UNL     1      -0.375   6.649   0.000  0.00  0.00    +0.001 A 
ATOM      6  C   UNL     1       0.924   5.899   0.000  0.00  0.00    +0.010 A 
ATOM      7  C   UNL     1       2.223   6.649   0.000  0.00  0.00    +0.006 A 
ATOM      8  C   UNL     1       3.522   5.899   0.000  0.00  0.00    -0.006 A 
ATOM      9  C   UNL     1       4.821   6.649   0.000  0.00  0.00    +0.035 A 
ATOM     20  C   UNL     1       4.821   8.149   0.000  0.00  0.00    +0.072 A 
ENDROOT
BRANCH  20  21
ATOM     21  C   UNL     1       6.120   8.899   0.000  0.00  0.00    +0.000 A 
ATOM     22  C   UNL     1       7.419   8.149   0.000  0.00  0.00    +0.011 A 
ATOM     23  C   UNL     1       8.718   8.899   0.000  0.00  0.00    +0.020 A 
ATOM     24  C   UNL     1       8.718  10.400   0.000  0.00  0.00    +0.041 A 
ATOM     25  C   UNL     1       7.419  11.150   0.000  0.00  0.00    +0.020 A 
ATOM     26 CL   UNL     1      10.017  11.150   0.000  0.00  0.00    -0.084 Cl
ATOM     27  C   UNL     1       6.120  10.400   0.000  0.00  0.00    +0.011 A 
ENDBRANCH  20  21
BRANCH   8  10
ATOM     10  C   UNL     1       3.522   4.399   0.000  0.00  0.00    +0.162 C 
BRANCH  10  13
ATOM     13  C   UNL     1       2.223   3.650   0.000  0.00  0.00    +0.087 C 
ATOM     14  N   UNL     1       0.924   4.399   0.000  0.00  0.00    -0.311 NA
ATOM     15  H   UNL     1       0.924   5.419   0.000  0.00  0.00    +0.122 HD
ATOM     16  C   UNL     1      -0.375   3.650   0.000  0.00  0.00    +0.081 C 
ATOM     17  C   UNL     1      -0.375   2.150   0.000  0.00  0.00    +0.015 C 
ATOM     18  C   UNL     1       0.924   1.400   0.000  0.00  0.00    +0.003 C 
ATOM     19  C   UNL     1       2.223   2.150   0.000  0.00  0.00    +0.021 C 
ENDBRANCH  10  13
BRANCH  10  11
ATOM     11  O   UNL     1       4.821   3.650   0.000  0.00  0.00    -0.386 OA
ATOM     12  H   UNL     1       4.821   2.680   0.000  0.00  0.00    +0.210 HD
ENDBRANCH  10  11
ENDBRANCH   8  10
TORSDOF 4