REMARK  Name = 127947
REMARK  8 active torsions:
REMARK  status: ('A' for Active; 'I' for Inactive)
REMARK    1  A    between atoms: C_1  and  C_10
REMARK    2  A    between atoms: C_2  and  C_9
REMARK    3  A    between atoms: C_2  and  C_12
REMARK    4  A    between atoms: C_4  and  C_8
REMARK    5  A    between atoms: C_5  and  O_7
REMARK    6  A    between atoms: C_5  and  C_8
REMARK    7  A    between atoms: C_10  and  C_11
REMARK    8  A    between atoms: N_13  and  O_14
REMARK                            x       y       z     vdW  Elec       q    Type
REMARK                         _______ _______ _______ _____ _____    ______ ____
ROOT
ATOM      1  C   UNL     1       0.246  -4.489   0.000  0.00  0.00    +0.043 C 
ATOM      7  C   UNL     1      -1.254  -4.489   0.000  0.00  0.00    +0.014 C 
ATOM      8  C   UNL     1      -1.254  -5.989   0.000  0.00  0.00    +0.007 C 
ATOM     14  C   UNL     1       0.246  -5.989   0.000  0.00  0.00    -0.024 C 
ATOM     15  C   UNL     1       1.746  -5.989   0.000  0.00  0.00    +0.012 C 
ATOM     16  C   UNL     1       0.246  -7.489   0.000  0.00  0.00    +0.012 C 
ENDROOT
BRANCH   1   2
ATOM      2  C   UNL     1       1.307  -3.428   0.000  0.00  0.00    +0.058 C 
ATOM      3  N   UNL     1       0.919  -1.979   0.000  0.00  0.00    -0.097 NA
ATOM      6  C   UNL     1       2.756  -3.816   0.000  0.00  0.00    +0.064 C 
BRANCH   3   4
ATOM      4  O   UNL     1       1.979  -0.919   0.000  0.00  0.00    -0.409 OA
ATOM      5  H   UNL     1       2.884  -1.161   0.000  0.00  0.00    +0.328 HD
ENDBRANCH   3   4
ENDBRANCH   1   2
BRANCH   8   9
ATOM      9  C   UNL     1      -2.314  -7.049   0.000  0.00  0.00    +0.124 C 
BRANCH   9  10
ATOM     10  C   UNL     1      -3.763  -6.661   0.000  0.00  0.00    +0.305 C 
ATOM     13  O   UNL     1      -4.152  -5.212   0.000  0.00  0.00    -0.251 OA
BRANCH  10  11
ATOM     11  O   UNL     1      -4.824  -7.722   0.000  0.00  0.00    -0.481 OA
ATOM     12  H   UNL     1      -5.729  -7.479   0.000  0.00  0.00    +0.295 HD
ENDBRANCH  10  11
ENDBRANCH   9  10
ENDBRANCH   8   9
TORSDOF 5