REMARK  Name = 13051
REMARK  9 active torsions:
REMARK  status: ('A' for Active; 'I' for Inactive)
REMARK    1  A    between atoms: C_3  and  O_26
REMARK    2  A    between atoms: C_4  and  C_22
REMARK    3  A    between atoms: C_6  and  C_27
REMARK    4  A    between atoms: C_8  and  N_25
REMARK    5  A    between atoms: C_9  and  N_25
REMARK    6  A    between atoms: C_13  and  O_28
REMARK    7  A    between atoms: C_22  and  C_23
REMARK    8  A    between atoms: C_22  and  C_24
REMARK    9  A    between atoms: O_28  and  C_29
REMARK                            x       y       z     vdW  Elec       q    Type
REMARK                         _______ _______ _______ _____ _____    ______ ____
ROOT
ATOM      1 CL   UNL     1      -8.069   5.524   0.000  0.00  0.00    -0.083 Cl
ATOM      2  C   UNL     1      -6.770   6.274   0.000  0.00  0.00    +0.043 A 
ATOM      3  C   UNL     1      -5.471   5.524   0.000  0.00  0.00    +0.048 A 
ATOM      4  C   UNL     1      -4.172   6.274   0.000  0.00  0.00    +0.075 A 
ATOM      5  C   UNL     1      -4.172   7.774   0.000  0.00  0.00    +0.022 A 
ATOM      6  C   UNL     1      -5.471   8.524   0.000  0.00  0.00    +0.013 A 
ATOM      7  C   UNL     1      -2.873   8.524   0.000  0.00  0.00    +0.050 A 
ATOM     22  C   UNL     1      -1.573   7.774   0.000  0.00  0.00    +0.026 A 
ATOM     23  C   UNL     1      -0.275   8.524   0.000  0.00  0.00    +0.057 A 
ATOM     24  C   UNL     1       1.025   7.774   0.000  0.00  0.00    +0.121 A 
ATOM     27  C   UNL     1       1.025   6.274   0.000  0.00  0.00    +0.048 A 
ATOM     28  C   UNL     1      -0.275   5.524   0.000  0.00  0.00    +0.032 A 
ATOM     29  C   UNL     1      -1.573   6.274   0.000  0.00  0.00    +0.074 A 
ATOM     30  N   UNL     1      -2.873   5.524   0.000  0.00  0.00    -0.247 NA
ATOM     31  C   UNL     1      -6.770   7.774   0.000  0.00  0.00    +0.021 A 
ENDROOT
BRANCH   7   8
ATOM      8  N   UNL     1      -2.873  10.025   0.000  0.00  0.00    -0.313 N 
ATOM      9  H   UNL     1      -3.725  10.517   0.000  0.00  0.00    +0.152 HD
BRANCH   8  10
ATOM     10  C   UNL     1      -0.729  11.262   0.000  0.00  0.00    +0.035 A 
ATOM     11  C   UNL     1      -0.729  12.762   0.000  0.00  0.00    +0.031 A 
ATOM     12  C   UNL     1       0.570  13.512   0.000  0.00  0.00    -0.002 A 
ATOM     16  C   UNL     1       1.869  12.762   0.000  0.00  0.00    +0.121 A 
ATOM     19  C   UNL     1       1.869  11.262   0.000  0.00  0.00    +0.050 A 
ATOM     20  C   UNL     1       0.570  10.512   0.000  0.00  0.00    -0.026 A 
ATOM     21  C   UNL     1       0.570   9.012   0.000  0.00  0.00    +0.046 C 
BRANCH  12  13
ATOM     13  C   UNL     1       0.570  15.012   0.000  0.00  0.00    +0.016 C 
ATOM     14  C   UNL     1       1.869  15.762   0.000  0.00  0.00    +0.012 C 
ATOM     15  C   UNL     1      -0.729  15.762   0.000  0.00  0.00    +0.012 C 
ENDBRANCH  12  13
BRANCH  16  17
ATOM     17  O   UNL     1       3.168  13.512   0.000  0.00  0.00    -0.506 OA
ATOM     18  H   UNL     1       3.979  13.044   0.000  0.00  0.00    +0.292 HD
ENDBRANCH  16  17
ENDBRANCH   8  10
ENDBRANCH   7   8
BRANCH  24  25
ATOM     25  O   UNL     1       2.324   8.524   0.000  0.00  0.00    -0.495 OA
ATOM     26  C   UNL     1       3.623   7.774   0.000  0.00  0.00    +0.277 C 
ENDBRANCH  24  25
TORSDOF 5