REMARK  Name = 131467
REMARK  8 active torsions:
REMARK  status: ('A' for Active; 'I' for Inactive)
REMARK    1  A    between atoms: C_12  and  C_13
REMARK    2  A    between atoms: C_14  and  C_27
REMARK    3  A    between atoms: C_15  and  C_25
REMARK    4  A    between atoms: C_16  and  C_17
REMARK    5  A    between atoms: O_23  and  C_24
REMARK    6  A    between atoms: O_23  and  C_25
REMARK    7  A    between atoms: C_27  and  O_29
REMARK    8  A    between atoms: O_29  and  C_30
REMARK                            x       y       z     vdW  Elec       q    Type
REMARK                         _______ _______ _______ _____ _____    ______ ____
ROOT
ATOM      1  N   UNL     1       1.527  -8.688   0.000  0.00  0.00    -0.352 N 
ATOM      2  H   UNL     1       2.953  -9.152   0.000  0.00  0.00    +0.166 HD
ATOM      3  C   UNL     1       0.313  -9.570   0.000  0.00  0.00    +0.062 A 
ATOM     10  C   UNL     1      -0.900  -8.688   0.000  0.00  0.00    +0.099 A 
ATOM     15  C   UNL     1      -0.437  -7.262   0.000  0.00  0.00    +0.100 A 
ATOM     20  C   UNL     1       1.063  -7.262   0.000  0.00  0.00    +0.081 A 
ENDROOT
BRANCH  20  21
ATOM     21  C   UNL     1       1.945  -6.048   0.000  0.00  0.00    +0.096 A 
ATOM     22  C   UNL     1       3.437  -6.205   0.000  0.00  0.00    +0.010 A 
ATOM     23  C   UNL     1       4.047  -7.575   0.000  0.00  0.00    +0.010 A 
ATOM     24  C   UNL     1       5.539  -7.732   0.000  0.00  0.00    +0.001 A 
ATOM     25  C   UNL     1       6.420  -6.519   0.000  0.00  0.00    +0.001 A 
ATOM     26  C   UNL     1       5.810  -5.148   0.000  0.00  0.00    +0.008 A 
ATOM     27  C   UNL     1       4.318  -4.992   0.000  0.00  0.00    -0.014 A 
ATOM     28  C   UNL     1       3.708  -3.621   0.000  0.00  0.00    +0.028 A 
ATOM     29  C   UNL     1       2.216  -3.465   0.000  0.00  0.00    +0.112 A 
ATOM     30  N   UNL     1       1.335  -4.678   0.000  0.00  0.00    -0.253 NA
ENDBRANCH  20  21
BRANCH   3   4
ATOM      4  C   UNL     1       0.313 -11.070   0.000  0.00  0.00    -0.001 A 
ATOM      5  C   UNL     1      -0.986 -11.820   0.000  0.00  0.00    +0.010 A 
ATOM      6  C   UNL     1      -0.986 -13.320   0.000  0.00  0.00    +0.001 A 
ATOM      7  C   UNL     1       0.313 -14.070   0.000  0.00  0.00    +0.000 A 
ATOM      8  C   UNL     1       1.612 -13.320   0.000  0.00  0.00    +0.001 A 
ATOM      9  C   UNL     1       1.612 -11.820   0.000  0.00  0.00    +0.010 A 
ENDBRANCH   3   4
BRANCH  10  11
ATOM     11  C   UNL     1      -2.327  -9.152   0.000  0.00  0.00    +0.342 C 
ATOM     12  O   UNL     1      -3.442  -8.148   0.000  0.00  0.00    -0.245 OA
BRANCH  11  13
ATOM     13  O   UNL     1      -2.639 -10.619   0.000  0.00  0.00    -0.464 OA
ATOM     14  C   UNL     1      -4.065 -11.083   0.000  0.00  0.00    +0.280 C 
ENDBRANCH  11  13
ENDBRANCH  10  11
BRANCH  15  16
ATOM     16  C   UNL     1      -1.318  -6.048   0.000  0.00  0.00    +0.342 C 
ATOM     19  O   UNL     1      -2.810  -6.205   0.000  0.00  0.00    -0.245 OA
BRANCH  16  17
ATOM     17  O   UNL     1      -0.708  -4.678   0.000  0.00  0.00    -0.464 OA
ATOM     18  C   UNL     1      -1.590  -3.465   0.000  0.00  0.00    +0.280 C 
ENDBRANCH  16  17
ENDBRANCH  15  16
TORSDOF 6