REMARK  Name = 133075
REMARK  3 active torsions:
REMARK  status: ('A' for Active; 'I' for Inactive)
REMARK    1  A    between atoms: N_9  and  C_11
REMARK    2  A    between atoms: C_14  and  S_17
REMARK    3  A    between atoms: S_17  and  N_22
REMARK                            x       y       z     vdW  Elec       q    Type
REMARK                         _______ _______ _______ _____ _____    ______ ____
ROOT
ATOM     10  C   UNL     1      -9.149  -1.772   0.000  0.00  0.00    +0.065 A 
ATOM     11  C   UNL     1      -8.145  -0.657   0.000  0.00  0.00    +0.030 A 
ATOM     12  C   UNL     1      -6.678  -0.969   0.000  0.00  0.00    +0.032 A 
ATOM     13  C   UNL     1      -6.214  -2.395   0.000  0.00  0.00    +0.124 A 
ATOM     25  C   UNL     1      -7.218  -3.510   0.000  0.00  0.00    +0.032 A 
ATOM     26  C   UNL     1      -8.685  -3.198   0.000  0.00  0.00    +0.030 A 
ENDROOT
BRANCH  10   9
ATOM      1  C   UNL     1     -15.104   1.931   0.000  0.00  0.00    +0.002 A 
ATOM      2  C   UNL     1     -13.805   2.680   0.000  0.00  0.00    +0.024 A 
ATOM      3  C   UNL     1     -12.506   1.931   0.000  0.00  0.00    +0.043 A 
ATOM      4  N   UNL     1     -11.079   2.394   0.000  0.00  0.00    -0.280 N 
ATOM      5  H   UNL     1     -10.775   3.330   0.000  0.00  0.00    +0.155 HD
ATOM      6  C   UNL     1     -10.198   1.181   0.000  0.00  0.00    +0.267 C 
ATOM      7  O   UNL     1      -8.698   1.181   0.000  0.00  0.00    -0.268 OA
ATOM      8  C   UNL     1     -11.079  -0.033   0.000  0.00  0.00    +0.135 C 
ATOM      9  N   UNL     1     -10.616  -1.460   0.000  0.00  0.00    -0.242 NA
ATOM     27  C   UNL     1     -12.506   0.430   0.000  0.00  0.00    +0.027 A 
ATOM     28  C   UNL     1     -13.805  -0.320   0.000  0.00  0.00    +0.012 A 
ATOM     29  C   UNL     1     -15.104   0.430   0.000  0.00  0.00    +0.001 A 
ENDBRANCH  10   9
BRANCH  13  14
ATOM     14  S   UNL     1      -4.747  -2.707   0.000  0.00  0.00    +0.120 S 
ATOM     23  O   UNL     1      -5.059  -4.174   0.000  0.00  0.00    -0.135 OA
ATOM     24  O   UNL     1      -3.280  -3.019   0.000  0.00  0.00    -0.135 OA
BRANCH  14  15
ATOM     15  N   UNL     1      -4.435  -1.240   0.000  0.00  0.00    -0.136 N 
ATOM     16  H   UNL     1      -5.167  -0.581   0.000  0.00  0.00    +0.291 HD
ATOM     17  C   UNL     1      -3.009  -0.776   0.000  0.00  0.00    +0.399 C 
ATOM     18  N   UNL     1      -2.697   0.691   0.000  0.00  0.00    -0.288 N 
ATOM     19  H   UNL     1      -3.428   1.350   0.000  0.00  0.00    +0.255 HD
ATOM     20  H   UNL     1      -1.760   0.995   0.000  0.00  0.00    +0.255 HD
ATOM     21  N   UNL     1      -1.894  -1.780   0.000  0.00  0.00    -0.128 NA
ATOM     22  H   UNL     1      -2.098  -2.743   0.000  0.00  0.00    +0.306 HD
ENDBRANCH  14  15
ENDBRANCH  13  14
TORSDOF 3