REMARK  Name = 131616
REMARK  6 active torsions:
REMARK  status: ('A' for Active; 'I' for Inactive)
REMARK    1  A    between atoms: C_3  and  O_20
REMARK    2  A    between atoms: C_3  and  C_23
REMARK    3  A    between atoms: C_5  and  C_25
REMARK    4  A    between atoms: O_21  and  C_22
REMARK    5  A    between atoms: O_21  and  C_23
REMARK    6  A    between atoms: C_25  and  C_26
REMARK                            x       y       z     vdW  Elec       q    Type
REMARK                         _______ _______ _______ _____ _____    ______ ____
ROOT
ATOM      1  N   UNL     1       0.981  -8.902   0.000  0.00  0.00    -0.305 N 
ATOM      2  C   UNL     1       0.098 -10.253   0.000  0.00  0.00    +0.052 A 
ATOM      3  C   UNL     1      -1.402 -10.272   0.000  0.00  0.00    +0.026 A 
ATOM      4  C   UNL     1      -2.135 -11.581   0.000  0.00  0.00    +0.002 A 
ATOM      5  C   UNL     1      -1.369 -12.870   0.000  0.00  0.00    +0.001 A 
ATOM      6  C   UNL     1       0.131 -12.851   0.000  0.00  0.00    +0.010 A 
ATOM      7  C   UNL     1       0.865 -11.542   0.000  0.00  0.00    +0.003 A 
ATOM      8  C   UNL     1       2.309 -11.136   0.000  0.00  0.00    -0.016 A 
ATOM      9  C   UNL     1       3.617 -11.869   0.000  0.00  0.00    +0.053 C 
ATOM     10  C   UNL     1       4.906 -11.102   0.000  0.00  0.00    +0.090 C 
ATOM     11  N   UNL     1       4.887  -9.602   0.000  0.00  0.00    -0.293 NA
ATOM     12  C   UNL     1       3.579  -8.869   0.000  0.00  0.00    +0.110 C 
ATOM     13  C   UNL     1       3.559  -7.369   0.000  0.00  0.00    -0.003 C 
ATOM     16  C   UNL     1       4.849  -6.603   0.000  0.00  0.00    +0.010 C 
ATOM     17  C   UNL     1       6.157  -7.336   0.000  0.00  0.00    +0.016 C 
ATOM     18  C   UNL     1       2.251  -6.636   0.000  0.00  0.00    +0.079 C 
ATOM     19  C   UNL     1       6.176  -8.836   0.000  0.00  0.00    +0.085 C 
ATOM     20  C   UNL     1       2.289  -9.636   0.000  0.00  0.00    +0.044 A 
ATOM     21  C   UNL     1       0.962  -7.402   0.000  0.00  0.00    +0.244 C 
ENDROOT
BRANCH  13  14
ATOM     14  C   UNL     1       3.540  -5.869   0.000  0.00  0.00    +0.005 C 
ATOM     15  C   UNL     1       2.232  -5.136   0.000  0.00  0.00    +0.004 C 
ENDBRANCH  13  14
BRANCH  21  22
ATOM     22  C   UNL     1       0.430  -6.000   0.000  0.00  0.00    +0.361 C 
ATOM     23  O   UNL     1       1.380  -4.838   0.000  0.00  0.00    -0.245 OA
BRANCH  22  24
ATOM     24  O   UNL     1      -1.050  -5.758   0.000  0.00  0.00    -0.465 OA
ATOM     25  C   UNL     1      -1.581  -4.355   0.000  0.00  0.00    +0.280 C 
ENDBRANCH  22  24
ENDBRANCH  21  22
BRANCH  21  26
ATOM     26  O   UNL     1      -0.512  -7.682   0.000  0.00  0.00    -0.361 OA
ATOM     27  H   UNL     1      -1.145  -6.947   0.000  0.00  0.00    +0.213 HD
ENDBRANCH  21  26
TORSDOF 4