REMARK  Name = 133114
REMARK  7 active torsions:
REMARK  status: ('A' for Active; 'I' for Inactive)
REMARK    1  A    between atoms: C_1  and  O_6
REMARK    2  A    between atoms: C_2  and  O_7
REMARK    3  A    between atoms: C_3  and  N_19
REMARK    4  A    between atoms: C_5  and  C_8
REMARK    5  A    between atoms: C_8  and  O_9
REMARK    6  A    between atoms: O_9  and  S_10
REMARK    7  A    between atoms: S_10  and  N_23
REMARK                            x       y       z     vdW  Elec       q    Type
REMARK                         _______ _______ _______ _____ _____    ______ ____
ROOT
ATOM      1  C   UNL     1      -1.138  -1.603   0.000  0.00  0.00    +0.178 C 
ATOM      4  C   UNL     1      -2.100  -0.453   0.000  0.00  0.00    +0.180 C 
ATOM     13  O   UNL     1      -1.303   0.818   0.000  0.00  0.00    -0.346 OA
ATOM     14  C   UNL     1       0.151   0.453   0.000  0.00  0.00    +0.253 C 
ATOM     27  C   UNL     1       0.254  -1.044   0.000  0.00  0.00    +0.195 C 
ENDROOT
BRANCH  14  15
ATOM     15  N   UNL     1       1.302   1.415   0.000  0.00  0.00    -0.286 N 
ATOM     16  C   UNL     1       1.200   2.912   0.000  0.00  0.00    +0.203 A 
ATOM     17  N   UNL     1       2.592   3.471   0.000  0.00  0.00    -0.231 NA
ATOM     18  C   UNL     1       3.554   2.321   0.000  0.00  0.00    +0.147 A 
ATOM     19  C   UNL     1       5.053   2.266   0.000  0.00  0.00    +0.147 A 
ATOM     20  N   UNL     1       5.850   3.537   0.000  0.00  0.00    -0.341 N 
ATOM     21  H   UNL     1       5.389   4.406   0.000  0.00  0.00    +0.144 HD
ATOM     22  H   UNL     1       6.834   3.501   0.000  0.00  0.00    +0.144 HD
ATOM     23  N   UNL     1       5.755   0.940   0.000  0.00  0.00    -0.219 NA
ATOM     24  C   UNL     1       4.958  -0.331   0.000  0.00  0.00    +0.225 A 
ATOM     25  N   UNL     1       3.459  -0.276   0.000  0.00  0.00    -0.216 NA
ATOM     26  C   UNL     1       2.757   1.050   0.000  0.00  0.00    +0.167 A 
ENDBRANCH  14  15
BRANCH   1   2
ATOM      2  O   UNL     1      -1.503  -3.058   0.000  0.00  0.00    -0.386 OA
ATOM      3  H   UNL     1      -2.436  -3.324   0.000  0.00  0.00    +0.210 HD
ENDBRANCH   1   2
BRANCH  27  28
ATOM     28  O   UNL     1       1.524  -1.841   0.000  0.00  0.00    -0.385 OA
ATOM     29  H   UNL     1       1.489  -2.810   0.000  0.00  0.00    +0.210 HD
ENDBRANCH  27  28
BRANCH   4   5
ATOM      5  C   UNL     1      -3.597  -0.555   0.000  0.00  0.00    +0.229 C 
BRANCH   5   6
ATOM      6  O   UNL     1      -4.257  -1.902   0.000  0.00  0.00    -0.222 OA
BRANCH   6   7
ATOM      7  S   UNL     1      -5.753  -2.004   0.000  0.00  0.00    +0.148 S 
ATOM     11  O   UNL     1      -5.651  -3.501   0.000  0.00  0.00    -0.130 OA
ATOM     12  O   UNL     1      -5.855  -0.508   0.000  0.00  0.00    -0.130 OA
BRANCH   7   8
ATOM      8  N   UNL     1      -7.250  -2.106   0.000  0.00  0.00    -0.183 NA
ATOM      9  H   UNL     1      -7.698  -3.022   0.000  0.00  0.00    +0.146 HD
ATOM     10  H   UNL     1      -7.819  -1.260   0.000  0.00  0.00    +0.146 HD
ENDBRANCH   7   8
ENDBRANCH   6   7
ENDBRANCH   5   6
ENDBRANCH   4   5
TORSDOF 7