REMARK  Name = 13294
REMARK  3 active torsions:
REMARK  status: ('A' for Active; 'I' for Inactive)
REMARK    1  A    between atoms: N_2  and  C_19
REMARK    2  A    between atoms: N_4  and  C_23
REMARK    3  A    between atoms: C_8  and  C_10
REMARK                            x       y       z     vdW  Elec       q    Type
REMARK                         _______ _______ _______ _____ _____    ______ ____
ROOT
ATOM      7  N   UNL     1       5.596  -3.962   0.000  0.00  0.00    -0.247 NA
ATOM      8  C   UNL     1       6.206  -5.332   0.000  0.00  0.00    +0.106 C 
ATOM      9  C   UNL     1       5.456  -6.631   0.000  0.00  0.00    +0.266 C 
ATOM     10  N   UNL     1       6.460  -7.746   0.000  0.00  0.00    -0.259 N 
ATOM     18  C   UNL     1       7.830  -7.136   0.000  0.00  0.00    +0.118 C 
ATOM     26  O   UNL     1       3.964  -6.788   0.000  0.00  0.00    -0.268 OA
ATOM     27  C   UNL     1       7.673  -5.644   0.000  0.00  0.00    +0.088 C 
ENDROOT
BRANCH   7   6
ATOM      1 CL   UNL     1       0.849  -6.075   0.000  0.00  0.00    -0.083 Cl
ATOM      2  C   UNL     1       1.731  -4.862   0.000  0.00  0.00    +0.043 A 
ATOM      3  C   UNL     1       1.121  -3.491   0.000  0.00  0.00    +0.020 A 
ATOM      4  C   UNL     1       2.002  -2.278   0.000  0.00  0.00    +0.003 A 
ATOM      5  C   UNL     1       3.494  -2.434   0.000  0.00  0.00    +0.028 A 
ATOM      6  C   UNL     1       4.104  -3.805   0.000  0.00  0.00    +0.066 A 
ATOM     28  C   UNL     1       3.222  -5.018   0.000  0.00  0.00    +0.047 A 
ENDBRANCH   7   6
BRANCH  10  11
ATOM     11  C   UNL     1       6.148  -9.213   0.000  0.00  0.00    +0.039 A 
ATOM     12  C   UNL     1       4.721  -9.676   0.000  0.00  0.00    +0.023 A 
ATOM     13  C   UNL     1       4.409 -11.144   0.000  0.00  0.00    +0.003 A 
ATOM     14  C   UNL     1       5.524 -12.147   0.000  0.00  0.00    +0.020 A 
ATOM     15  C   UNL     1       6.951 -11.684   0.000  0.00  0.00    +0.043 A 
ATOM     16 CL   UNL     1       8.065 -12.688   0.000  0.00  0.00    -0.083 Cl
ATOM     17  C   UNL     1       7.263 -10.217   0.000  0.00  0.00    +0.043 A 
ENDBRANCH  10  11
BRANCH  18  19
ATOM     19  C   UNL     1       9.129  -7.886   0.000  0.00  0.00    -0.026 A 
ATOM     20  C   UNL     1      10.428  -7.136   0.000  0.00  0.00    +0.007 A 
ATOM     21  C   UNL     1      11.727  -7.886   0.000  0.00  0.00    +0.020 A 
ATOM     22  C   UNL     1      11.727  -9.386   0.000  0.00  0.00    +0.041 A 
ATOM     23  C   UNL     1      10.428 -10.136   0.000  0.00  0.00    +0.020 A 
ATOM     24 CL   UNL     1      13.026 -10.136   0.000  0.00  0.00    -0.084 Cl
ATOM     25  C   UNL     1       9.129  -9.386   0.000  0.00  0.00    +0.007 A 
ENDBRANCH  18  19
TORSDOF 3