REMARK  Name = 128141
REMARK  9 active torsions:
REMARK  status: ('A' for Active; 'I' for Inactive)
REMARK    1  A    between atoms: O_1  and  C_3
REMARK    2  A    between atoms: O_1  and  C_14
REMARK    3  A    between atoms: C_5  and  C_11
REMARK    4  A    between atoms: C_6  and  N_8
REMARK    5  A    between atoms: N_8  and  C_9
REMARK    6  A    between atoms: N_8  and  C_10
REMARK    7  A    between atoms: C_11  and  C_12
REMARK    8  A    between atoms: C_11  and  C_13
REMARK    9  A    between atoms: N_16  and  C_17
REMARK                            x       y       z     vdW  Elec       q    Type
REMARK                         _______ _______ _______ _____ _____    ______ ____
ROOT
ATOM      7  C   UNL     1      -4.647  -1.500   0.000  0.00  0.00    +0.137 A 
ATOM      8  C   UNL     1      -4.647  -3.000   0.000  0.00  0.00    -0.001 A 
ATOM     12  C   UNL     1      -5.946  -3.750   0.000  0.00  0.00    +0.030 A 
ATOM     13  C   UNL     1      -7.245  -3.000   0.000  0.00  0.00    +0.030 A 
ATOM     17  C   UNL     1      -7.245  -1.500   0.000  0.00  0.00    +0.027 A 
ATOM     18  C   UNL     1      -5.946  -0.750   0.000  0.00  0.00    +0.048 A 
ENDROOT
BRANCH   8   9
ATOM      9  C   UNL     1      -3.348  -3.750   0.000  0.00  0.00    +0.016 C 
ATOM     10  C   UNL     1      -3.348  -5.250   0.000  0.00  0.00    +0.012 C 
ATOM     11  C   UNL     1      -2.049  -3.000   0.000  0.00  0.00    +0.012 C 
ENDBRANCH   8   9
BRANCH  13  14
ATOM     14  N   UNL     1      -8.544  -3.750   0.000  0.00  0.00    -0.336 N 
ATOM     15  C   UNL     1      -8.544  -5.250   0.000  0.00  0.00    +0.129 C 
ATOM     16  C   UNL     1      -9.843  -3.000   0.000  0.00  0.00    +0.129 C 
ENDBRANCH  13  14
BRANCH   7   1
ATOM      1  O   UNL     1      -3.348  -0.750   0.000  0.00  0.00    -0.411 OA
BRANCH   1   2
ATOM      2  C   UNL     1      -3.348   0.750   0.000  0.00  0.00    +0.405 C 
ATOM      3  N   UNL     1      -4.647   1.500   0.000  0.00  0.00    -0.284 N 
ATOM      4  H   UNL     1      -5.500   1.008   0.000  0.00  0.00    +0.152 HD
ATOM      5  C   UNL     1      -4.647   3.000   0.000  0.00  0.00    +0.131 C 
ATOM      6  O   UNL     1      -2.049   1.500   0.000  0.00  0.00    -0.226 OA
ENDBRANCH   1   2
ENDBRANCH   7   1
TORSDOF 4