REMARK  Name = 131982
REMARK  6 active torsions:
REMARK  status: ('A' for Active; 'I' for Inactive)
REMARK    1  A    between atoms: C_3  and  N_7
REMARK    2  A    between atoms: N_7  and  C_8
REMARK    3  A    between atoms: C_8  and  N_10
REMARK    4  A    between atoms: N_10  and  C_11
REMARK    5  A    between atoms: C_11  and  C_12
REMARK    6  A    between atoms: C_12  and  C_13
REMARK                            x       y       z     vdW  Elec       q    Type
REMARK                         _______ _______ _______ _____ _____    ______ ____
ROOT
ATOM      3  N   UNL     1      -5.946  -0.750   0.000  0.00  0.00    -0.297 N 
ATOM      4  H   UNL     1      -5.946   0.234   0.000  0.00  0.00    +0.154 HD
ENDROOT
BRANCH   3   2
ATOM      1  C   UNL     1      -8.544  -0.750   0.000  0.00  0.00    +0.023 A 
ATOM      2  C   UNL     1      -7.245  -1.500   0.000  0.00  0.00    +0.033 A 
ATOM     12  C   UNL     1      -7.245  -3.000   0.000  0.00  0.00    +0.023 A 
ATOM     13  C   UNL     1      -8.544  -3.750   0.000  0.00  0.00    +0.002 A 
ATOM     14  C   UNL     1      -9.843  -3.000   0.000  0.00  0.00    +0.000 A 
ATOM     15  C   UNL     1      -9.843  -1.500   0.000  0.00  0.00    +0.002 A 
ENDBRANCH   3   2
BRANCH   3   5
ATOM      5  C   UNL     1      -4.647  -1.500   0.000  0.00  0.00    +0.135 C 
ATOM     11  S   UNL     1      -3.348  -0.750   0.000  0.00  0.00    -0.019 S 
BRANCH   5   6
ATOM      6  N   UNL     1      -4.647  -3.000   0.000  0.00  0.00    -0.326 N 
ATOM      7  H   UNL     1      -5.500  -3.492   0.000  0.00  0.00    +0.148 HD
BRANCH   6   8
ATOM      8  C   UNL     1      -3.348  -3.750   0.000  0.00  0.00    +0.103 C 
BRANCH   8   9
ATOM      9  C   UNL     1      -2.049  -3.000   0.000  0.00  0.00    +0.015 C 
ATOM     10  C   UNL     1      -0.750  -3.750   0.000  0.00  0.00    +0.005 C 
ENDBRANCH   8   9
ENDBRANCH   6   8
ENDBRANCH   5   6
ENDBRANCH   3   5
TORSDOF 5