REMARK  Name = 127458
REMARK  1 active torsions:
REMARK  status: ('A' for Active; 'I' for Inactive)
REMARK    1  A    between atoms: N_2  and  C_9
REMARK                            x       y       z     vdW  Elec       q    Type
REMARK                         _______ _______ _______ _____ _____    ______ ____
ROOT
ATOM      1  N   UNL     1      -4.949   2.846   0.000  0.00  0.00    -0.236 NA
ATOM      2  C   UNL     1      -3.457   3.003   0.000  0.00  0.00    +0.163 A 
ATOM      3  C   UNL     1      -2.575   1.790   0.000  0.00  0.00    +0.039 A 
ATOM      4  C   UNL     1      -3.185   0.419   0.000  0.00  0.00    +0.014 A 
ATOM      5  C   UNL     1      -4.677   0.263   0.000  0.00  0.00    +0.020 A 
ATOM      6  C   UNL     1      -1.149   2.253   0.000  0.00  0.00    +0.145 A 
ATOM      7  N   UNL     1      -1.149   3.753   0.000  0.00  0.00    -0.172 NA
ATOM      8  N   UNL     1      -2.575   4.217   0.000  0.00  0.00    -0.214 N 
ATOM     15  C   UNL     1      -5.559   1.476   0.000  0.00  0.00    +0.113 A 
ENDROOT
BRANCH   8   9
ATOM      9  C   UNL     1      -3.039   5.643   0.000  0.00  0.00    +0.068 A 
ATOM     10  C   UNL     1      -4.506   5.955   0.000  0.00  0.00    +0.028 A 
ATOM     11  C   UNL     1      -4.970   7.382   0.000  0.00  0.00    +0.002 A 
ATOM     12  C   UNL     1      -3.966   8.496   0.000  0.00  0.00    +0.000 A 
ATOM     13  C   UNL     1      -2.498   8.185   0.000  0.00  0.00    +0.002 A 
ATOM     14  C   UNL     1      -2.035   6.758   0.000  0.00  0.00    +0.028 A 
ENDBRANCH   8   9
TORSDOF 1