REMARK  Name = 
REMARK  14 active torsions:
REMARK  status: ('A' for Active; 'I' for Inactive)
REMARK    1  A    between atoms: C_1  and  C_2
REMARK    2  A    between atoms: C_3  and  C_4
REMARK    3  A    between atoms: C_4  and  O_5
REMARK    4  A    between atoms: O_5  and  C_6
REMARK    5  A    between atoms: C_10  and  C_11
REMARK    6  A    between atoms: C_11  and  C_12
REMARK    7  A    between atoms: C_17  and  C_19
REMARK    8  A    between atoms: C_19  and  O_20
REMARK    9  A    between atoms: C_22  and  O_23
REMARK   10  A    between atoms: O_23  and  C_24
REMARK   11  A    between atoms: C_24  and  C_25
REMARK   12  A    between atoms: C_30  and  O_31
REMARK   13  A    between atoms: O_31  and  C_32
REMARK   14  A    between atoms: C_37  and  C_38
REMARK                            x       y       z     vdW  Elec       q    Type
REMARK                         _______ _______ _______ _____ _____    ______ ____
ROOT
ATOM     20  C   UNL     1       0.362   3.372   0.118  0.00  0.00    +0.143 A 
ATOM     21  C   UNL     1       0.779   4.673   0.416  0.00  0.00    +0.093 A 
ATOM     22  C   UNL     1      -0.119   5.763   0.337  0.00  0.00    +0.128 A 
ATOM     33  C   UNL     1      -1.458   5.554  -0.055  0.00  0.00    -0.004 A 
ATOM     45  C   UNL     1      -1.872   4.240  -0.329  0.00  0.00    +0.031 A 
ATOM     46  C   UNL     1      -0.977   3.166  -0.243  0.00  0.00    +0.083 A 
ATOM     47 CL   UNL     1      -1.568   1.586  -0.626  0.00  0.00    -0.080 Cl
ENDROOT
BRANCH  20  19
ATOM     19  O   UNL     1       1.160   2.257   0.136  0.00  0.00    -0.486 OA
BRANCH  19  18
ATOM     18  C   UNL     1       2.556   2.397   0.370  0.00  0.00    +0.265 C 
BRANCH  18  17
ATOM      1  C   UNL     1       3.616   1.278  -2.184  0.00  0.00    +0.045 C 
ATOM      2  C   UNL     1       3.816   0.516  -0.893  0.00  0.00    -0.036 A 
ATOM      3  C   UNL     1       4.572  -0.698  -0.851  0.00  0.00    -0.014 A 
ATOM     14  C   UNL     1       4.493  -1.456   0.338  0.00  0.00    +0.009 A 
ATOM     15  C   UNL     1       3.771  -1.025   1.451  0.00  0.00    +0.001 A 
ATOM     16  C   UNL     1       3.164   0.222   1.441  0.00  0.00    +0.007 A 
ATOM     17  C   UNL     1       3.203   1.022   0.290  0.00  0.00    -0.007 A 
BRANCH   3   4
ATOM      4  C   UNL     1       5.457  -1.185  -1.961  0.00  0.00    -0.014 A 
ATOM      5  C   UNL     1       5.663  -2.559  -2.206  0.00  0.00    +0.058 A 
ATOM      6  C   UNL     1       6.536  -3.009  -3.206  0.00  0.00    +0.163 A 
ATOM      7  O   UNL     1       6.710  -4.366  -3.310  0.00  0.00    -0.485 OA
ATOM      8  C   UNL     1       7.389  -4.731  -4.517  0.00  0.00    +0.270 C 
ATOM      9  C   UNL     1       8.542  -3.787  -4.821  0.00  0.00    +0.270 C 
ATOM     10  O   UNL     1       8.067  -2.452  -5.016  0.00  0.00    -0.485 OA
ATOM     11  C   UNL     1       7.204  -2.092  -4.016  0.00  0.00    +0.162 A 
ATOM     12  C   UNL     1       7.015  -0.734  -3.812  0.00  0.00    +0.050 A 
ATOM     13  C   UNL     1       6.190  -0.293  -2.770  0.00  0.00    +0.012 A 
ENDBRANCH   3   4
ENDBRANCH  18  17
ENDBRANCH  19  18
ENDBRANCH  20  19
BRANCH  22  23
ATOM     23  O   UNL     1       0.268   7.061   0.552  0.00  0.00    -0.487 OA
BRANCH  23  24
ATOM     24  C   UNL     1       1.313   7.288   1.505  0.00  0.00    +0.268 C 
BRANCH  24  25
ATOM     25  C   UNL     1       1.536   8.775   1.607  0.00  0.00    +0.031 A 
ATOM     26  C   UNL     1       2.455   9.512   0.845  0.00  0.00    +0.126 A 
ATOM     29  C   UNL     1       2.559  10.900   1.043  0.00  0.00    +0.046 A 
ATOM     30  C   UNL     1       1.752  11.567   1.965  0.00  0.00    +0.004 A 
ATOM     31  C   UNL     1       0.845  10.846   2.726  0.00  0.00    +0.001 A 
ATOM     32  C   UNL     1       0.747   9.467   2.552  0.00  0.00    +0.010 A 
BRANCH  26  27
ATOM     27  O   UNL     1       3.400   9.031  -0.020  0.00  0.00    -0.495 OA
ATOM     28  C   UNL     1       3.020   8.024  -0.946  0.00  0.00    +0.277 C 
ENDBRANCH  26  27
ENDBRANCH  24  25
ENDBRANCH  23  24
ENDBRANCH  22  23
BRANCH  33  34
ATOM     34  C   UNL     1      -2.477   6.685  -0.231  0.00  0.00    +0.043 C 
BRANCH  34  35
ATOM     35  C   UNL     1      -3.502   6.828   0.934  0.00  0.00    +0.007 C 
ATOM     36  C   UNL     1      -4.800   7.620   0.594  0.00  0.00    +0.101 C 
ATOM     41  C   UNL     1      -4.675   9.154   0.627  0.00  0.00    +0.015 C 
ATOM     42  C   UNL     1      -3.911   9.700   1.824  0.00  0.00    +0.001 C 
ATOM     43  C   UNL     1      -2.634   8.930   2.106  0.00  0.00    +0.000 C 
ATOM     44  C   UNL     1      -2.866   7.426   2.202  0.00  0.00    +0.004 C 
BRANCH  36  37
ATOM     37  C   UNL     1      -5.416   7.190  -0.733  0.00  0.00    +0.308 C 
ATOM     38  O   UNL     1      -5.366   7.832  -1.769  0.00  0.00    -0.251 OA
BRANCH  37  39
ATOM     39  O   UNL     1      -6.026   5.985  -0.667  0.00  0.00    -0.480 OA
ATOM     40  H   UNL     1      -6.021   5.579   0.220  0.00  0.00    +0.295 HD
ENDBRANCH  37  39
ENDBRANCH  36  37
ENDBRANCH  34  35
ENDBRANCH  33  34
TORSDOF 12
