REMARK  Name = 53874
REMARK  4 active torsions:
REMARK  status: ('A' for Active; 'I' for Inactive)
REMARK    1  A    between atoms: N_5  and  C_14
REMARK    2  A    between atoms: C_14  and  C_15
REMARK    3  A    between atoms: C_14  and  C_18
REMARK    4  A    between atoms: C_15  and  O_17
REMARK                            x       y       z     vdW  Elec       q    Type
REMARK                         _______ _______ _______ _____ _____    ______ ____
ROOT
ATOM      5  C   UNL     1       6.383   7.551   0.000  0.00  0.00    +0.192 C 
ENDROOT
BRANCH   5   4
ATOM      1  O   UNL     1       2.486   5.301   0.000  0.00  0.00    -0.377 OA
ATOM      2  C   UNL     1       3.785   4.551   0.000  0.00  0.00    +0.175 C 
ATOM      3  C   UNL     1       5.084   5.301   0.000  0.00  0.00    +0.113 C 
ATOM      4  N   UNL     1       5.084   6.801   0.000  0.00  0.00    -0.282 NA
ATOM     14  C   UNL     1       3.785   7.551   0.000  0.00  0.00    +0.113 C 
ATOM     15  C   UNL     1       2.486   6.801   0.000  0.00  0.00    +0.175 C 
ENDBRANCH   5   4
BRANCH   5   6
ATOM      6  C   UNL     1       6.383   9.051   0.000  0.00  0.00    +0.035 C 
ATOM      7  C   UNL     1       7.682   9.801   0.000  0.00  0.00    +0.105 C 
ATOM      8 CL   UNL     1       8.981   9.051   0.000  0.00  0.00    -0.071 Cl
ATOM      9 CL   UNL     1       7.682  11.301   0.000  0.00  0.00    -0.071 Cl
ENDBRANCH   5   6
BRANCH   5  10
ATOM     10  C   UNL     1       7.682   6.801   0.000  0.00  0.00    +0.326 C 
ATOM     13  O   UNL     1       8.981   7.551   0.000  0.00  0.00    -0.249 OA
BRANCH  10  11
ATOM     11  O   UNL     1       7.682   5.301   0.000  0.00  0.00    -0.479 OA
ATOM     12  H   UNL     1       6.870   4.833   0.000  0.00  0.00    +0.295 HD
ENDBRANCH  10  11
ENDBRANCH   5  10
TORSDOF 4