REMARK  Name = 524615
REMARK  12 active torsions:
REMARK  status: ('A' for Active; 'I' for Inactive)
REMARK    1  A    between atoms: C_2  and  C_7
REMARK    2  A    between atoms: C_4  and  C_18
REMARK    3  A    between atoms: C_7  and  O_9
REMARK    4  A    between atoms: O_9  and  C_10
REMARK    5  A    between atoms: C_10  and  C_11
REMARK    6  A    between atoms: C_10  and  C_12
REMARK    7  A    between atoms: C_12  and  C_13
REMARK    8  A    between atoms: C_13  and  C_14
REMARK    9  A    between atoms: C_14  and  C_15
REMARK   10  A    between atoms: C_15  and  C_16
REMARK   11  A    between atoms: C_16  and  C_17
REMARK   12  A    between atoms: C_18  and  O_20
REMARK                            x       y       z     vdW  Elec       q    Type
REMARK                         _______ _______ _______ _____ _____    ______ ____
ROOT
ATOM      3  C   UNL     1      -3.623   3.275   0.000  0.00  0.00    +0.340 C 
ATOM     13  O   UNL     1      -2.324   2.525   0.000  0.00  0.00    -0.245 OA
ENDROOT
BRANCH   3   2
ATOM      1  C   UNL     1      -6.221   3.275   0.000  0.00  0.00    +0.016 A 
ATOM      2  C   UNL     1      -4.922   2.525   0.000  0.00  0.00    +0.073 A 
ATOM     14  C   UNL     1      -4.922   1.025   0.000  0.00  0.00    +0.073 A 
ATOM     19  C   UNL     1      -6.221   0.275   0.000  0.00  0.00    +0.016 A 
ATOM     20  C   UNL     1      -7.520   1.025   0.000  0.00  0.00    +0.001 A 
ATOM     21  C   UNL     1      -7.520   2.525   0.000  0.00  0.00    +0.001 A 
BRANCH  14  15
ATOM     15  C   UNL     1      -3.623   0.275   0.000  0.00  0.00    +0.338 C 
ATOM     18  O   UNL     1      -2.324   1.025   0.000  0.00  0.00    -0.245 OA
BRANCH  15  16
ATOM     16  O   UNL     1      -3.623  -1.226   0.000  0.00  0.00    -0.477 OA
ATOM     17  H   UNL     1      -4.434  -1.694   0.000  0.00  0.00    +0.295 HD
ENDBRANCH  15  16
ENDBRANCH  14  15
ENDBRANCH   3   2
BRANCH   3   4
ATOM      4  O   UNL     1      -3.623   4.774   0.000  0.00  0.00    -0.458 OA
BRANCH   4   5
ATOM      5  C   UNL     1      -4.922   5.524   0.000  0.00  0.00    +0.174 C 
ATOM     12  C   UNL     1      -6.221   4.774   0.000  0.00  0.00    +0.052 C 
BRANCH   5   6
ATOM      6  C   UNL     1      -4.922   7.024   0.000  0.00  0.00    +0.044 C 
BRANCH   6   7
ATOM      7  C   UNL     1      -6.221   7.774   0.000  0.00  0.00    +0.004 C 
BRANCH   7   8
ATOM      8  C   UNL     1      -7.520   7.024   0.000  0.00  0.00    +0.000 C 
BRANCH   8   9
ATOM      9  C   UNL     1      -8.819   7.774   0.000  0.00  0.00    -0.000 C 
BRANCH   9  10
ATOM     10  C   UNL     1     -10.118   7.024   0.000  0.00  0.00    -0.003 C 
ATOM     11  C   UNL     1     -11.417   7.774   0.000  0.00  0.00    +0.004 C 
ENDBRANCH   9  10
ENDBRANCH   8   9
ENDBRANCH   7   8
ENDBRANCH   6   7
ENDBRANCH   5   6
ENDBRANCH   4   5
ENDBRANCH   3   4
TORSDOF 10