REMARK  Name = 53275
REMARK  9 active torsions:
REMARK  status: ('A' for Active; 'I' for Inactive)
REMARK    1  A    between atoms: N_2  and  N_4
REMARK    2  A    between atoms: C_11  and  C_32
REMARK    3  A    between atoms: C_13  and  C_29
REMARK    4  A    between atoms: C_15  and  C_31
REMARK    5  A    between atoms: C_20  and  C_28
REMARK    6  A    between atoms: C_23  and  N_25
REMARK    7  A    between atoms: C_29  and  N_30
REMARK    8  A    between atoms: N_30  and  C_31
REMARK    9  A    between atoms: N_30  and  C_32
REMARK                            x       y       z     vdW  Elec       q    Type
REMARK                         _______ _______ _______ _____ _____    ______ ____
ROOT
ATOM     11  N   UNL     1       1.047   5.288   0.000  0.00  0.00    -0.155 N 
ATOM     12  C   UNL     1       1.797   6.587   0.000  0.00  0.00    +0.423 C 
ATOM     13  O   UNL     1       0.793   7.702   0.000  0.00  0.00    -0.443 OA
ATOM     14  C   UNL     1      -0.577   7.092   0.000  0.00  0.00    +0.211 C 
ATOM     31  O   UNL     1       3.289   6.744   0.000  0.00  0.00    -0.224 OA
ATOM     32  C   UNL     1      -0.420   5.600   0.000  0.00  0.00    +0.184 C 
ENDROOT
BRANCH  11  10
ATOM      9  C   UNL     1       0.331   2.791   0.000  0.00  0.00    +0.177 C 
ATOM     10  N   UNL     1       1.410   3.833   0.000  0.00  0.00    -0.179 NA
BRANCH   9   8
ATOM      1  O   UNL     1       2.085   0.773   0.000  0.00  0.00    -0.399 OA
ATOM      2  C   UNL     1       1.980  -0.723   0.000  0.00  0.00    +0.438 A 
ATOM      6  C   UNL     1       0.525  -1.086   0.000  0.00  0.00    +0.132 A 
ATOM      7  C   UNL     1      -0.270   0.186   0.000  0.00  0.00    +0.058 A 
ATOM      8  C   UNL     1       0.694   1.335   0.000  0.00  0.00    +0.154 A 
BRANCH   2   3
ATOM      3  N   UNL     1       3.129  -1.687   0.000  0.00  0.00    +0.119 N 
ATOM      4  O   UNL     1       4.539  -1.174   0.000  0.00  0.00    +0.045 OA
ATOM      5  O   UNL     1       2.869  -3.164   0.000  0.00  0.00    -0.573 OA
ENDBRANCH   2   3
ENDBRANCH   9   8
ENDBRANCH  11  10
BRANCH  14  15
ATOM     15  C   UNL     1      -1.876   7.842   0.000  0.00  0.00    +0.131 C 
BRANCH  15  16
ATOM     16  N   UNL     1      -3.175   7.092   0.000  0.00  0.00    -0.290 NA
BRANCH  16  17
ATOM     17  C   UNL     1      -3.175   5.592   0.000  0.00  0.00    +0.120 C 
BRANCH  17  18
ATOM     18  C   UNL     1      -4.474   4.842   0.000  0.00  0.00    -0.033 A 
ATOM     19  C   UNL     1      -5.773   5.592   0.000  0.00  0.00    +0.005 A 
ATOM     20  C   UNL     1      -7.072   4.842   0.000  0.00  0.00    +0.000 A 
ATOM     21  C   UNL     1      -7.072   3.342   0.000  0.00  0.00    +0.000 A 
ATOM     22  C   UNL     1      -5.773   2.592   0.000  0.00  0.00    +0.000 A 
ATOM     23  C   UNL     1      -4.474   3.342   0.000  0.00  0.00    +0.005 A 
ENDBRANCH  17  18
ENDBRANCH  16  17
BRANCH  16  24
ATOM     24  C   UNL     1      -4.474   7.842   0.000  0.00  0.00    +0.120 C 
BRANCH  24  25
ATOM     25  C   UNL     1      -4.474   9.342   0.000  0.00  0.00    -0.033 A 
ATOM     26  C   UNL     1      -3.175  10.092   0.000  0.00  0.00    +0.005 A 
ATOM     27  C   UNL     1      -3.175  11.592   0.000  0.00  0.00    +0.000 A 
ATOM     28  C   UNL     1      -4.474  12.342   0.000  0.00  0.00    +0.000 A 
ATOM     29  C   UNL     1      -5.773  11.592   0.000  0.00  0.00    +0.000 A 
ATOM     30  C   UNL     1      -5.773  10.092   0.000  0.00  0.00    +0.005 A 
ENDBRANCH  24  25
ENDBRANCH  16  24
ENDBRANCH  15  16
ENDBRANCH  14  15
TORSDOF 9