REMARK  Name = 53506
REMARK  6 active torsions:
REMARK  status: ('A' for Active; 'I' for Inactive)
REMARK    1  A    between atoms: C_3  and  C_7
REMARK    2  A    between atoms: C_7  and  O_9
REMARK    3  A    between atoms: O_9  and  C_10
REMARK    4  A    between atoms: C_10  and  C_11
REMARK    5  A    between atoms: C_11  and  C_12
REMARK    6  A    between atoms: C_12  and  C_13
REMARK                            x       y       z     vdW  Elec       q    Type
REMARK                         _______ _______ _______ _____ _____    ______ ____
ROOT
ATOM      6  C   UNL     1       3.522   4.399   0.000  0.00  0.00    +0.341 C 
ATOM     12  O   UNL     1       4.821   3.650   0.000  0.00  0.00    -0.245 OA
ENDROOT
BRANCH   6   5
ATOM      1  N   UNL     1      -0.375   3.650   0.000  0.00  0.00    -0.262 NA
ATOM      2  C   UNL     1      -0.375   2.150   0.000  0.00  0.00    +0.111 A 
ATOM      3  C   UNL     1       0.924   1.400   0.000  0.00  0.00    +0.020 A 
ATOM      4  C   UNL     1       2.223   2.150   0.000  0.00  0.00    +0.018 A 
ATOM      5  C   UNL     1       2.223   3.650   0.000  0.00  0.00    +0.077 A 
ATOM     13  C   UNL     1       0.924   4.399   0.000  0.00  0.00    +0.125 A 
ENDBRANCH   6   5
BRANCH   6   7
ATOM      7  O   UNL     1       3.522   5.899   0.000  0.00  0.00    -0.461 OA
BRANCH   7   8
ATOM      8  C   UNL     1       4.821   6.649   0.000  0.00  0.00    +0.232 C 
BRANCH   8   9
ATOM      9  C   UNL     1       6.120   5.899   0.000  0.00  0.00    +0.041 C 
BRANCH   9  10
ATOM     10  C   UNL     1       7.419   6.649   0.000  0.00  0.00    -0.000 C 
ATOM     11  C   UNL     1       8.718   5.899   0.000  0.00  0.00    +0.004 C 
ENDBRANCH   9  10
ENDBRANCH   8   9
ENDBRANCH   7   8
ENDBRANCH   6   7
TORSDOF 5