REMARK  Name = 57318
REMARK  9 active torsions:
REMARK  status: ('A' for Active; 'I' for Inactive)
REMARK    1  A    between atoms: C_2  and  C_7
REMARK    2  A    between atoms: C_4  and  C_12
REMARK    3  A    between atoms: O_5  and  C_7
REMARK    4  A    between atoms: O_5  and  C_10
REMARK    5  A    between atoms: N_8  and  C_13
REMARK    6  A    between atoms: C_10  and  C_11
REMARK    7  A    between atoms: C_13  and  C_14
REMARK    8  A    between atoms: C_14  and  C_15
REMARK    9  A    between atoms: C_15  and  C_16
REMARK                            x       y       z     vdW  Elec       q    Type
REMARK                         _______ _______ _______ _____ _____    ______ ____
ROOT
ATOM      1  C   UNL     1       0.591   1.691   0.000  0.00  0.00    +0.140 C 
ATOM      2  C   UNL     1       1.698   0.679   0.000  0.00  0.00    +0.224 C 
ATOM      3  N   UNL     1       1.078  -0.687   0.000  0.00  0.00    -0.275 N 
ATOM      8  C   UNL     1      -0.413  -0.519   0.000  0.00  0.00    +0.021 C 
ATOM      9  C   UNL     1      -1.425  -1.626   0.000  0.00  0.00    +0.061 C 
ATOM     10  O   UNL     1       3.168   0.980   0.000  0.00  0.00    -0.275 OA
ATOM     11  C   UNL     1      -0.714   0.951   0.000  0.00  0.00    +0.062 C 
ENDROOT
BRANCH  11  12
ATOM     12  C   UNL     1      -2.079   1.571   0.000  0.00  0.00    +0.337 C 
ATOM     13  O   UNL     1      -2.225   3.064   0.000  0.00  0.00    -0.245 OA
BRANCH  12  14
ATOM     14  O   UNL     1      -3.299   0.699   0.000  0.00  0.00    -0.462 OA
BRANCH  14  15
ATOM     15  C   UNL     1      -4.665   1.320   0.000  0.00  0.00    +0.229 C 
ATOM     16  C   UNL     1      -4.810   2.813   0.000  0.00  0.00    +0.048 C 
ENDBRANCH  14  15
ENDBRANCH  12  14
ENDBRANCH  11  12
BRANCH   3   4
ATOM      4  C   UNL     1       1.818  -1.992   0.000  0.00  0.00    +0.113 C 
BRANCH   4   5
ATOM      5  C   UNL     1       3.297  -1.742   0.000  0.00  0.00    +0.019 C 
BRANCH   5   6
ATOM      6  C   UNL     1       4.252  -2.899   0.000  0.00  0.00    -0.002 C 
ATOM      7  C   UNL     1       3.728  -4.304   0.000  0.00  0.00    +0.004 C 
ENDBRANCH   5   6
ENDBRANCH   4   5
ENDBRANCH   3   4
TORSDOF 6