REMARK  Name = 56914
REMARK  3 active torsions:
REMARK  status: ('A' for Active; 'I' for Inactive)
REMARK    1  A    between atoms: N_4  and  C_10
REMARK    2  A    between atoms: C_8  and  C_11
REMARK    3  A    between atoms: N_13  and  C_14
REMARK                            x       y       z     vdW  Elec       q    Type
REMARK                         _______ _______ _______ _____ _____    ______ ____
ROOT
ATOM      1  O   UNL     1      -6.120  -7.399   0.000  0.00  0.00    -0.245 OA
ATOM      2  C   UNL     1      -4.821  -6.649   0.000  0.00  0.00    +0.345 A 
ATOM      3  N   UNL     1      -3.522  -7.399   0.000  0.00  0.00    -0.217 N 
ATOM      4  C   UNL     1      -3.522  -8.899   0.000  0.00  0.00    +0.178 C 
ATOM      5  N   UNL     1      -2.223  -6.649   0.000  0.00  0.00    -0.157 NA
ATOM      6  C   UNL     1      -2.223  -5.149   0.000  0.00  0.00    +0.210 A 
ATOM     12  C   UNL     1      -3.522  -4.399   0.000  0.00  0.00    +0.285 A 
ATOM     13  O   UNL     1      -3.522  -2.900   0.000  0.00  0.00    -0.265 OA
ATOM     14  N   UNL     1      -4.821  -5.149   0.000  0.00  0.00    -0.272 N 
ATOM     15  H   UNL     1      -6.120  -4.399   0.000  0.00  0.00    +0.174 HD
ENDROOT
BRANCH   6   7
ATOM      7  C   UNL     1      -0.924  -4.399   0.000  0.00  0.00    +0.269 C 
ATOM      8  N   UNL     1      -0.924  -2.900   0.000  0.00  0.00    -0.313 N 
ATOM      9  H   UNL     1      -1.777  -2.407   0.000  0.00  0.00    +0.149 HD
ATOM     10  C   UNL     1       0.375  -2.150   0.000  0.00  0.00    +0.128 C 
ATOM     11  O   UNL     1       0.375  -5.149   0.000  0.00  0.00    -0.268 OA
ENDBRANCH   6   7
TORSDOF 1