REMARK  Name = 55152
REMARK  6 active torsions:
REMARK  status: ('A' for Active; 'I' for Inactive)
REMARK    1  A    between atoms: C_1  and  N_23
REMARK    2  A    between atoms: C_6  and  N_24
REMARK    3  A    between atoms: C_7  and  C_9
REMARK    4  A    between atoms: C_14  and  C_16
REMARK    5  A    between atoms: C_17  and  N_25
REMARK    6  A    between atoms: C_22  and  N_26
REMARK                            x       y       z     vdW  Elec       q    Type
REMARK                         _______ _______ _______ _____ _____    ______ ____
ROOT
ATOM     12  C   UNL     1       9.000   3.348   0.000  0.00  0.00    +0.037 A 
ATOM     13  C   UNL     1       9.750   2.049   0.000  0.00  0.00    +0.014 A 
ATOM     14  C   UNL     1      11.250   2.049   0.000  0.00  0.00    +0.014 A 
ATOM     15  C   UNL     1      12.000   3.348   0.000  0.00  0.00    +0.037 A 
ATOM     29  C   UNL     1      11.250   4.647   0.000  0.00  0.00    +0.014 A 
ATOM     30  C   UNL     1       9.750   4.647   0.000  0.00  0.00    +0.014 A 
ENDROOT
BRANCH  12  10
ATOM      8  N   UNL     1       6.750   2.049   0.000  0.00  0.00    -0.282 N 
ATOM      9  H   UNL     1       7.242   1.196   0.000  0.00  0.00    +0.155 HD
ATOM     10  C   UNL     1       7.500   3.348   0.000  0.00  0.00    +0.248 C 
ATOM     11  O   UNL     1       6.750   4.647   0.000  0.00  0.00    -0.270 OA
BRANCH   8   7
ATOM      1  C   UNL     1       2.250   2.049   0.000  0.00  0.00    +0.025 A 
ATOM      5  C   UNL     1       3.000   0.750   0.000  0.00  0.00    +0.024 A 
ATOM      6  C   UNL     1       4.500   0.750   0.000  0.00  0.00    +0.025 A 
ATOM      7  C   UNL     1       5.250   2.049   0.000  0.00  0.00    +0.034 A 
ATOM     31  C   UNL     1       4.500   3.348   0.000  0.00  0.00    +0.025 A 
ATOM     32  C   UNL     1       3.000   3.348   0.000  0.00  0.00    +0.024 A 
BRANCH   1   2
ATOM      2  N   UNL     1       0.750   2.049   0.000  0.00  0.00    -0.358 N 
ATOM      3  H   UNL     1       0.258   1.196   0.000  0.00  0.00    +0.142 HD
ATOM      4  H   UNL     1       0.258   2.902   0.000  0.00  0.00    +0.142 HD
ENDBRANCH   1   2
ENDBRANCH   8   7
ENDBRANCH  12  10
BRANCH  15  16
ATOM     16  C   UNL     1      13.500   3.348   0.000  0.00  0.00    +0.248 C 
ATOM     17  N   UNL     1      14.250   2.049   0.000  0.00  0.00    -0.282 N 
ATOM     18  H   UNL     1      13.758   1.196   0.000  0.00  0.00    +0.155 HD
ATOM     28  O   UNL     1      14.250   4.647   0.000  0.00  0.00    -0.270 OA
BRANCH  17  19
ATOM     19  C   UNL     1      15.750   2.049   0.000  0.00  0.00    +0.034 A 
ATOM     20  C   UNL     1      16.500   0.750   0.000  0.00  0.00    +0.025 A 
ATOM     21  C   UNL     1      18.000   0.750   0.000  0.00  0.00    +0.024 A 
ATOM     22  C   UNL     1      18.750   2.049   0.000  0.00  0.00    +0.025 A 
ATOM     26  C   UNL     1      18.000   3.348   0.000  0.00  0.00    +0.024 A 
ATOM     27  C   UNL     1      16.500   3.348   0.000  0.00  0.00    +0.025 A 
BRANCH  22  23
ATOM     23  N   UNL     1      20.250   2.049   0.000  0.00  0.00    -0.358 N 
ATOM     24  H   UNL     1      20.742   2.902   0.000  0.00  0.00    +0.142 HD
ATOM     25  H   UNL     1      20.742   1.196   0.000  0.00  0.00    +0.142 HD
ENDBRANCH  22  23
ENDBRANCH  17  19
ENDBRANCH  15  16
TORSDOF 6