REMARK  Name = 51787
REMARK  1 active torsions:
REMARK  status: ('A' for Active; 'I' for Inactive)
REMARK    1  A    between atoms: C_10  and  O_11
REMARK                            x       y       z     vdW  Elec       q    Type
REMARK                         _______ _______ _______ _____ _____    ______ ____
ROOT
ATOM      1  N   UNL     1      -1.310  -1.500   0.000  0.00  0.00    -0.263 NA
ATOM      2  C   UNL     1      -1.310  -3.000   0.000  0.00  0.00    +0.111 A 
ATOM      3  C   UNL     1      -2.608  -3.750   0.000  0.00  0.00    +0.032 A 
ATOM      4  C   UNL     1      -3.908  -3.000   0.000  0.00  0.00    +0.026 A 
ATOM      5  C   UNL     1      -5.207  -3.750   0.000  0.00  0.00    +0.125 A 
ATOM      8  C   UNL     1      -6.506  -3.000   0.000  0.00  0.00    +0.046 A 
ATOM      9  C   UNL     1      -6.506  -1.500   0.000  0.00  0.00    +0.004 A 
ATOM     10  C   UNL     1      -5.207  -0.750   0.000  0.00  0.00    +0.010 A 
ATOM     11  C   UNL     1      -3.908  -1.500   0.000  0.00  0.00    +0.004 A 
ATOM     12  C   UNL     1      -2.608  -0.750   0.000  0.00  0.00    +0.119 A 
ENDROOT
BRANCH   5   6
ATOM      6  O   UNL     1      -5.207  -5.250   0.000  0.00  0.00    -0.506 OA
ATOM      7  H   UNL     1      -6.018  -5.718   0.000  0.00  0.00    +0.292 HD
ENDBRANCH   5   6
TORSDOF 1