REMARK  Name = 54860
REMARK  3 active torsions:
REMARK  status: ('A' for Active; 'I' for Inactive)
REMARK    1  A    between atoms: C_7  and  C_13
REMARK    2  A    between atoms: C_12  and  C_16
REMARK    3  A    between atoms: C_13  and  C_15
REMARK                            x       y       z     vdW  Elec       q    Type
REMARK                         _______ _______ _______ _____ _____    ______ ____
ROOT
ATOM      6  C   UNL     1      -1.317   1.138   0.000  0.00  0.00    +0.193 C 
ATOM     15  O   UNL     1      -1.312   2.638   0.000  0.00  0.00    -0.287 OA
ENDROOT
BRANCH   6   5
ATOM      1 CL   UNL     1      -4.861  -2.775   0.000  0.00  0.00    -0.076 Cl
ATOM      2  C   UNL     1      -4.247  -1.407   0.000  0.00  0.00    +0.079 A 
ATOM      3  C   UNL     1      -4.993  -0.105   0.000  0.00  0.00    +0.028 A 
ATOM      4  C   UNL     1      -3.986   1.006   0.000  0.00  0.00    +0.021 A 
ATOM      5  C   UNL     1      -2.618   0.392   0.000  0.00  0.00    +0.060 A 
ATOM     16  S   UNL     1      -2.779  -1.099   0.000  0.00  0.00    -0.074 S 
ENDBRANCH   6   5
BRANCH   6   7
ATOM      7  C   UNL     1      -0.020   0.385   0.000  0.00  0.00    +0.053 C 
ATOM      8  C   UNL     1       1.282   1.131   0.000  0.00  0.00    +0.019 C 
BRANCH   8   9
ATOM      9  C   UNL     1       2.578   0.377   0.000  0.00  0.00    +0.014 A 
ATOM     10  C   UNL     1       2.731  -1.115   0.000  0.00  0.00    +0.017 A 
ATOM     11  C   UNL     1       4.197  -1.432   0.000  0.00  0.00    +0.028 A 
ATOM     12  C   UNL     1       4.951  -0.135   0.000  0.00  0.00    +0.079 A 
ATOM     13 CL   UNL     1       6.443   0.018   0.000  0.00  0.00    -0.076 Cl
ATOM     14  S   UNL     1       3.950   0.983   0.000  0.00  0.00    -0.077 S 
ENDBRANCH   8   9
ENDBRANCH   6   7
TORSDOF 3