REMARK  Name = 55862
REMARK  2 active torsions:
REMARK  status: ('A' for Active; 'I' for Inactive)
REMARK    1  A    between atoms: C_10  and  C_17
REMARK    2  A    between atoms: C_11  and  C_12
REMARK                            x       y       z     vdW  Elec       q    Type
REMARK                         _______ _______ _______ _____ _____    ______ ____
ROOT
ATOM      1  O   UNL     1      -7.520   3.475   0.000  0.00  0.00    -0.245 OA
ATOM      2  C   UNL     1      -7.520   1.976   0.000  0.00  0.00    +0.345 A 
ATOM      3  C   UNL     1      -8.819   1.226   0.000  0.00  0.00    +0.067 A 
ATOM      4  C   UNL     1     -10.118   1.976   0.000  0.00  0.00    +0.015 A 
ATOM      5  C   UNL     1     -11.417   1.226   0.000  0.00  0.00    +0.001 A 
ATOM      6  C   UNL     1     -11.417  -0.275   0.000  0.00  0.00    +0.001 A 
ATOM      7  C   UNL     1     -10.118  -1.025   0.000  0.00  0.00    +0.009 A 
ATOM      8  C   UNL     1      -8.819  -0.275   0.000  0.00  0.00    +0.000 A 
ATOM      9  C   UNL     1      -7.520  -1.025   0.000  0.00  0.00    +0.033 A 
ATOM     16  C   UNL     1      -6.221  -0.275   0.000  0.00  0.00    +0.147 A 
ATOM     23  O   UNL     1      -6.221   1.226   0.000  0.00  0.00    -0.421 OA
ENDROOT
BRANCH   9  10
ATOM     10  C   UNL     1      -7.520  -2.525   0.000  0.00  0.00    -0.014 A 
ATOM     11  C   UNL     1      -8.819  -3.275   0.000  0.00  0.00    +0.008 A 
ATOM     12  C   UNL     1      -8.819  -4.774   0.000  0.00  0.00    +0.001 A 
ATOM     13  C   UNL     1      -7.520  -5.524   0.000  0.00  0.00    +0.000 A 
ATOM     14  C   UNL     1      -6.221  -4.774   0.000  0.00  0.00    +0.001 A 
ATOM     15  C   UNL     1      -6.221  -3.275   0.000  0.00  0.00    +0.008 A 
ENDBRANCH   9  10
BRANCH  16  17
ATOM     17  C   UNL     1      -4.922  -1.025   0.000  0.00  0.00    +0.018 A 
ATOM     18  C   UNL     1      -3.623  -0.275   0.000  0.00  0.00    +0.011 A 
ATOM     19  C   UNL     1      -2.324  -1.025   0.000  0.00  0.00    +0.001 A 
ATOM     20  C   UNL     1      -2.324  -2.525   0.000  0.00  0.00    +0.000 A 
ATOM     21  C   UNL     1      -3.623  -3.275   0.000  0.00  0.00    +0.001 A 
ATOM     22  C   UNL     1      -4.922  -2.525   0.000  0.00  0.00    +0.011 A 
ENDBRANCH  16  17
TORSDOF 2