REMARK  Name = 57741
REMARK  2 active torsions:
REMARK  status: ('A' for Active; 'I' for Inactive)
REMARK    1  A    between atoms: C_9  and  C_13
REMARK    2  A    between atoms: C_10  and  C_12
REMARK                            x       y       z     vdW  Elec       q    Type
REMARK                         _______ _______ _______ _____ _____    ______ ____
ROOT
ATOM      1  N   UNL     1       3.348   0.750   0.000  0.00  0.00    -0.211 NA
ATOM      2  C   UNL     1       4.647   1.500   0.000  0.00  0.00    +0.180 A 
ATOM      3  C   UNL     1       4.647   3.000   0.000  0.00  0.00    +0.108 A 
ATOM      4  C   UNL     1       3.348   3.750   0.000  0.00  0.00    +0.035 A 
ATOM      5  C   UNL     1       2.049   3.000   0.000  0.00  0.00    +0.045 A 
ATOM      6  N   UNL     1       5.946   3.750   0.000  0.00  0.00    -0.247 NA
ATOM      7  C   UNL     1       7.245   3.000   0.000  0.00  0.00    +0.060 A 
ATOM      8  C   UNL     1       8.544   3.750   0.000  0.00  0.00    +0.067 C 
ATOM      9  C   UNL     1       7.245   1.500   0.000  0.00  0.00    +0.062 A 
ATOM     10  C   UNL     1       8.544   0.750   0.000  0.00  0.00    +0.067 C 
ATOM     11  N   UNL     1       5.946   0.750   0.000  0.00  0.00    -0.229 NA
ATOM     12  C   UNL     1       2.049   1.500   0.000  0.00  0.00    +0.119 A 
ATOM     13  N   UNL     1       0.750   0.750   0.000  0.00  0.00    -0.343 N 
ATOM     14  H   UNL     1       0.750  -0.234   0.000  0.00  0.00    +0.144 HD
ATOM     15  H   UNL     1      -0.103   1.242   0.000  0.00  0.00    +0.144 HD
ENDROOT
TORSDOF 0