REMARK  Name = 57670
REMARK  6 active torsions:
REMARK  status: ('A' for Active; 'I' for Inactive)
REMARK    1  A    between atoms: C_2  and  C_13
REMARK    2  A    between atoms: C_5  and  C_12
REMARK    3  A    between atoms: C_7  and  C_8
REMARK    4  A    between atoms: C_7  and  C_10
REMARK    5  A    between atoms: C_14  and  C_15
REMARK    6  A    between atoms: C_14  and  C_17
REMARK                            x       y       z     vdW  Elec       q    Type
REMARK                         _______ _______ _______ _____ _____    ______ ____
ROOT
ATOM      1  C   UNL     1      -8.544  -8.250   0.000  0.00  0.00    +0.008 A 
ATOM      2  C   UNL     1      -8.544  -6.750   0.000  0.00  0.00    +0.008 A 
ATOM      3  C   UNL     1      -9.843  -6.000   0.000  0.00  0.00    -0.023 A 
ATOM     10  C   UNL     1     -11.142  -6.750   0.000  0.00  0.00    +0.008 A 
ATOM     11  C   UNL     1     -11.142  -8.250   0.000  0.00  0.00    +0.008 A 
ATOM     12  C   UNL     1      -9.843  -9.000   0.000  0.00  0.00    -0.023 A 
ENDROOT
BRANCH   3   4
ATOM      4  C   UNL     1      -9.843  -4.500   0.000  0.00  0.00    +0.038 C 
ATOM      5  C   UNL     1     -11.142  -3.750   0.000  0.00  0.00    +0.129 C 
BRANCH   5   6
ATOM      6  C   UNL     1     -12.441  -4.500   0.000  0.00  0.00    +0.110 C 
ATOM      7  N   UNL     1     -13.740  -5.250   0.000  0.00  0.00    -0.190 NA
ENDBRANCH   5   6
BRANCH   5   8
ATOM      8  C   UNL     1     -11.142  -2.250   0.000  0.00  0.00    +0.110 C 
ATOM      9  N   UNL     1     -11.142  -0.750   0.000  0.00  0.00    -0.190 NA
ENDBRANCH   5   8
ENDBRANCH   3   4
BRANCH  12  13
ATOM     13  C   UNL     1      -9.843 -10.500   0.000  0.00  0.00    +0.038 C 
ATOM     14  C   UNL     1     -11.142 -11.250   0.000  0.00  0.00    +0.129 C 
BRANCH  14  15
ATOM     15  C   UNL     1     -12.441 -10.500   0.000  0.00  0.00    +0.110 C 
ATOM     16  N   UNL     1     -13.740  -9.750   0.000  0.00  0.00    -0.190 NA
ENDBRANCH  14  15
BRANCH  14  17
ATOM     17  C   UNL     1     -11.142 -12.750   0.000  0.00  0.00    +0.110 C 
ATOM     18  N   UNL     1     -11.142 -14.250   0.000  0.00  0.00    -0.190 NA
ENDBRANCH  14  17
ENDBRANCH  12  13
TORSDOF 6