REMARK  Name = 55459
REMARK  5 active torsions:
REMARK  status: ('A' for Active; 'I' for Inactive)
REMARK    1  A    between atoms: C_4  and  N_8
REMARK    2  A    between atoms: C_5  and  N_9
REMARK    3  A    between atoms: N_9  and  C_10
REMARK    4  A    between atoms: C_10  and  C_11
REMARK    5  A    between atoms: C_11  and  O_12
REMARK                            x       y       z     vdW  Elec       q    Type
REMARK                         _______ _______ _______ _____ _____    ______ ____
ROOT
ATOM      1 CL   UNL     1       0.750   3.750   0.000  0.00  0.00    -0.060 Cl
ATOM      2  C   UNL     1       2.049   3.000   0.000  0.00  0.00    +0.155 A 
ATOM      3  C   UNL     1       3.348   3.750   0.000  0.00  0.00    +0.102 A 
ATOM      7  C   UNL     1       4.647   3.000   0.000  0.00  0.00    +0.144 A 
ATOM     14  N   UNL     1       4.647   1.500   0.000  0.00  0.00    -0.219 NA
ATOM     15  C   UNL     1       3.348   0.750   0.000  0.00  0.00    +0.225 A 
ATOM     16  N   UNL     1       2.049   1.500   0.000  0.00  0.00    -0.222 NA
ENDROOT
BRANCH   3   4
ATOM      4  N   UNL     1       3.348   5.250   0.000  0.00  0.00    -0.353 N 
ATOM      5  H   UNL     1       2.495   5.742   0.000  0.00  0.00    +0.143 HD
ATOM      6  H   UNL     1       4.201   5.742   0.000  0.00  0.00    +0.143 HD
ENDBRANCH   3   4
BRANCH   7   8
ATOM      8  N   UNL     1       5.946   3.750   0.000  0.00  0.00    -0.325 N 
ATOM      9  H   UNL     1       5.946   4.734   0.000  0.00  0.00    +0.148 HD
BRANCH   8  10
ATOM     10  C   UNL     1       7.245   3.000   0.000  0.00  0.00    +0.130 C 
BRANCH  10  11
ATOM     11  C   UNL     1       8.544   3.750   0.000  0.00  0.00    +0.174 C 
BRANCH  11  12
ATOM     12  O   UNL     1       9.843   3.000   0.000  0.00  0.00    -0.393 OA
ATOM     13  H   UNL     1       9.843   2.030   0.000  0.00  0.00    +0.209 HD
ENDBRANCH  11  12
ENDBRANCH  10  11
ENDBRANCH   8  10
ENDBRANCH   7   8
TORSDOF 5