REMARK  Name = 5836
REMARK  6 active torsions:
REMARK  status: ('A' for Active; 'I' for Inactive)
REMARK    1  A    between atoms: N_1  and  C_9
REMARK    2  A    between atoms: C_5  and  C_24
REMARK    3  A    between atoms: C_5  and  C_25
REMARK    4  A    between atoms: C_7  and  C_23
REMARK    5  A    between atoms: C_16  and  S_19
REMARK    6  A    between atoms: S_19  and  O_22
REMARK                            x       y       z     vdW  Elec       q    Type
REMARK                         _______ _______ _______ _____ _____    ______ ____
ROOT
ATOM      2  C   UNL     1       1.310  -7.828   0.000  0.00  0.00    +0.048 A 
ATOM      3  C   UNL     1       0.011  -8.578   0.000  0.00  0.00    +0.004 A 
ATOM      4  C   UNL     1      -1.288  -7.828   0.000  0.00  0.00    +0.012 A 
ATOM      5  C   UNL     1      -2.587  -8.578   0.000  0.00  0.00    +0.030 A 
ATOM      6  C   UNL     1      -2.587 -10.078   0.000  0.00  0.00    +0.117 A 
ATOM     12  C   UNL     1      -1.288 -10.828   0.000  0.00  0.00    +0.038 A 
ATOM     13  C   UNL     1       0.011 -10.078   0.000  0.00  0.00    -0.014 A 
ATOM     14  C   UNL     1       1.311 -10.828   0.000  0.00  0.00    +0.009 A 
ATOM     15  C   UNL     1       2.610 -10.078   0.000  0.00  0.00    +0.002 A 
ATOM     16  C   UNL     1       2.610  -8.578   0.000  0.00  0.00    +0.024 A 
ENDROOT
BRANCH   2   1
ATOM      1  N   UNL     1       1.310  -6.328   0.000  0.00  0.00    -0.255 N 
ATOM     17  C   UNL     1       2.610  -5.578   0.000  0.00  0.00    +0.142 C 
ATOM     18  S   UNL     1       3.909  -6.328   0.000  0.00  0.00    -0.018 S 
ATOM     19  N   UNL     1       2.610  -4.078   0.000  0.00  0.00    -0.317 N 
ATOM     20  H   UNL     1       3.909  -3.328   0.000  0.00  0.00    +0.149 HD
ATOM     21  C   UNL     1       1.310  -3.328   0.000  0.00  0.00    +0.048 C 
ATOM     22  C   UNL     1       2.275  -2.179   0.000  0.00  0.00    +0.036 C 
ATOM     23  C   UNL     1       0.346  -2.179   0.000  0.00  0.00    +0.036 C 
ATOM     24  C   UNL     1       0.011  -4.078   0.000  0.00  0.00    +0.017 C 
ATOM     25  C   UNL     1       0.011  -5.578   0.000  0.00  0.00    +0.013 C 
ATOM     26  C   UNL     1      -1.288  -6.328   0.000  0.00  0.00    +0.061 C 
ENDBRANCH   2   1
BRANCH   6   7
ATOM      7  S   UNL     1      -3.886 -10.828   0.000  0.00  0.00    +0.110 S 
ATOM     10  O   UNL     1      -5.185 -11.578   0.000  0.00  0.00    -0.142 OA
ATOM     11  O   UNL     1      -4.636  -9.529   0.000  0.00  0.00    -0.142 OA
BRANCH   7   8
ATOM      8  O   UNL     1      -3.136 -12.127   0.000  0.00  0.00    -0.250 OA
ATOM      9  H   UNL     1      -3.621 -12.967   0.000  0.00  0.00    +0.245 HD
ENDBRANCH   7   8
ENDBRANCH   6   7
TORSDOF 3