REMARK  Name = 55453
REMARK  6 active torsions:
REMARK  status: ('A' for Active; 'I' for Inactive)
REMARK    1  A    between atoms: C_5  and  N_17
REMARK    2  A    between atoms: C_6  and  C_18
REMARK    3  A    between atoms: C_10  and  O_15
REMARK    4  A    between atoms: C_12  and  S_13
REMARK    5  A    between atoms: S_13  and  C_14
REMARK    6  A    between atoms: O_15  and  C_16
REMARK                            x       y       z     vdW  Elec       q    Type
REMARK                         _______ _______ _______ _____ _____    ______ ____
ROOT
ATOM      1  N   UNL     1       4.922   1.976   0.000  0.00  0.00    -0.227 NA
ATOM      2  C   UNL     1       3.623   1.226   0.000  0.00  0.00    +0.162 A 
ATOM      3  C   UNL     1       3.623  -0.275   0.000  0.00  0.00    +0.178 A 
ATOM      6  C   UNL     1       4.922  -1.025   0.000  0.00  0.00    +0.169 A 
ATOM      7  N   UNL     1       4.922  -2.525   0.000  0.00  0.00    -0.296 N 
ATOM      8  H   UNL     1       4.069  -3.017   0.000  0.00  0.00    +0.154 HD
ATOM     17  N   UNL     1       6.221  -0.275   0.000  0.00  0.00    -0.203 NA
ATOM     18  C   UNL     1       6.221   1.226   0.000  0.00  0.00    +0.190 A 
ENDROOT
BRANCH   7   9
ATOM      9  C   UNL     1       6.221  -3.275   0.000  0.00  0.00    +0.033 A 
ATOM     10  C   UNL     1       6.221  -4.774   0.000  0.00  0.00    +0.024 A 
ATOM     11  C   UNL     1       7.520  -5.524   0.000  0.00  0.00    +0.020 A 
ATOM     12  C   UNL     1       8.819  -4.774   0.000  0.00  0.00    +0.052 A 
ATOM     15  C   UNL     1       8.819  -3.275   0.000  0.00  0.00    +0.020 A 
ATOM     16  C   UNL     1       7.520  -2.525   0.000  0.00  0.00    +0.024 A 
BRANCH  12  13
ATOM     13  C   UNL     1      10.118  -5.524   0.000  0.00  0.00    +0.099 C 
ATOM     14  N   UNL     1      11.417  -6.274   0.000  0.00  0.00    -0.191 NA
ENDBRANCH  12  13
ENDBRANCH   7   9
BRANCH   3   4
ATOM      4  O   UNL     1       2.324  -1.025   0.000  0.00  0.00    -0.490 OA
ATOM      5  C   UNL     1       2.324  -2.525   0.000  0.00  0.00    +0.277 C 
ENDBRANCH   3   4
BRANCH  18  19
ATOM     19  S   UNL     1       7.520   1.976   0.000  0.00  0.00    -0.089 S 
ATOM     20  C   UNL     1       7.520   3.475   0.000  0.00  0.00    +0.093 C 
ENDBRANCH  18  19
TORSDOF 4