REMARK  Name = 57608
REMARK  21 active torsions:
REMARK  status: ('A' for Active; 'I' for Inactive)
REMARK    1  A    between atoms: C_1  and  C_2
REMARK    2  A    between atoms: C_1  and  O_3
REMARK    3  A    between atoms: O_3  and  C_4
REMARK    4  A    between atoms: C_4  and  C_6
REMARK    5  A    between atoms: C_6  and  C_7
REMARK    6  A    between atoms: N_9  and  C_10
REMARK    7  A    between atoms: C_10  and  C_11
REMARK    8  A    between atoms: C_10  and  C_12
REMARK    9  A    between atoms: C_10  and  C_13
REMARK   10  A    between atoms: C_13  and  C_14
REMARK   11  A    between atoms: C_14  and  C_15
REMARK   12  A    between atoms: C_15  and  C_16
REMARK   13  A    between atoms: C_16  and  C_17
REMARK   14  A    between atoms: C_17  and  C_18
REMARK   15  A    between atoms: C_17  and  C_19
REMARK   16  A    between atoms: C_17  and  N_20
REMARK   17  A    between atoms: C_21  and  C_23
REMARK   18  A    between atoms: C_23  and  C_24
REMARK   19  A    between atoms: C_24  and  O_26
REMARK   20  A    between atoms: O_26  and  C_27
REMARK   21  A    between atoms: C_27  and  C_28
REMARK                            x       y       z     vdW  Elec       q    Type
REMARK                         _______ _______ _______ _____ _____    ______ ____
ROOT
ATOM     10  C   UNL     1      -8.250  -3.549   0.000  0.00  0.00    +0.002 C 
ENDROOT
BRANCH  10   9
ATOM      9  C   UNL     1      -9.000  -4.848   0.000  0.00  0.00    +0.025 C 
BRANCH   9   8
ATOM      8  C   UNL     1     -10.500  -4.848   0.000  0.00  0.00    +0.029 C 
ATOM     26  C   UNL     1     -10.500  -6.348   0.000  0.00  0.00    +0.031 C 
ATOM     27  C   UNL     1     -12.000  -4.848   0.000  0.00  0.00    +0.031 C 
BRANCH   8   6
ATOM      5  C   UNL     1     -11.799  -2.598   0.000  0.00  0.00    +0.224 C 
ATOM      6  N   UNL     1     -10.500  -3.348   0.000  0.00  0.00    -0.310 N 
ATOM      7  H   UNL     1      -9.647  -2.856   0.000  0.00  0.00    +0.149 HD
ATOM     28  O   UNL     1     -11.799  -1.098   0.000  0.00  0.00    -0.275 OA
BRANCH   5   4
ATOM      4  C   UNL     1     -13.098  -3.348   0.000  0.00  0.00    +0.216 C 
BRANCH   4   3
ATOM      3  C   UNL     1     -14.397  -2.598   0.000  0.00  0.00    +0.316 C 
ATOM     29  O   UNL     1     -14.397  -1.098   0.000  0.00  0.00    -0.250 OA
BRANCH   3   2
ATOM      2  O   UNL     1     -15.696  -3.348   0.000  0.00  0.00    -0.465 OA
BRANCH   2   1
ATOM      1  C   UNL     1     -16.995  -2.598   0.000  0.00  0.00    +0.229 C 
ATOM     30  C   UNL     1     -18.294  -3.348   0.000  0.00  0.00    +0.048 C 
ENDBRANCH   2   1
ENDBRANCH   3   2
ENDBRANCH   4   3
ENDBRANCH   5   4
ENDBRANCH   8   6
ENDBRANCH   9   8
ENDBRANCH  10   9
BRANCH  10  11
ATOM     11  C   UNL     1      -6.750  -3.549   0.000  0.00  0.00    +0.002 C 
BRANCH  11  12
ATOM     12  C   UNL     1      -6.000  -2.250   0.000  0.00  0.00    +0.025 C 
BRANCH  12  13
ATOM     13  C   UNL     1      -4.500  -2.250   0.000  0.00  0.00    +0.029 C 
ATOM     24  C   UNL     1      -4.500  -0.750   0.000  0.00  0.00    +0.031 C 
ATOM     25  C   UNL     1      -4.500  -3.750   0.000  0.00  0.00    +0.031 C 
BRANCH  13  14
ATOM     14  N   UNL     1      -3.000  -2.250   0.000  0.00  0.00    -0.310 N 
ATOM     15  H   UNL     1      -2.435  -1.444   0.000  0.00  0.00    +0.149 HD
ATOM     16  C   UNL     1      -2.487  -3.660   0.000  0.00  0.00    +0.224 C 
ATOM     23  O   UNL     1      -3.451  -4.809   0.000  0.00  0.00    -0.275 OA
BRANCH  16  17
ATOM     17  C   UNL     1      -1.010  -3.920   0.000  0.00  0.00    +0.216 C 
BRANCH  17  18
ATOM     18  C   UNL     1      -0.046  -2.771   0.000  0.00  0.00    +0.316 C 
ATOM     22  O   UNL     1      -0.559  -1.361   0.000  0.00  0.00    -0.250 OA
BRANCH  18  19
ATOM     19  O   UNL     1       1.432  -3.031   0.000  0.00  0.00    -0.465 OA
BRANCH  19  20
ATOM     20  C   UNL     1       2.396  -1.882   0.000  0.00  0.00    +0.229 C 
ATOM     21  C   UNL     1       1.883  -0.473   0.000  0.00  0.00    +0.048 C 
ENDBRANCH  19  20
ENDBRANCH  18  19
ENDBRANCH  17  18
ENDBRANCH  16  17
ENDBRANCH  13  14
ENDBRANCH  12  13
ENDBRANCH  11  12
ENDBRANCH  10  11
TORSDOF 15