REMARK  Name = 57345
REMARK  5 active torsions:
REMARK  status: ('A' for Active; 'I' for Inactive)
REMARK    1  A    between atoms: C_3  and  O_16
REMARK    2  A    between atoms: C_6  and  O_12
REMARK    3  A    between atoms: C_6  and  C_13
REMARK    4  A    between atoms: C_13  and  C_14
REMARK    5  A    between atoms: C_14  and  O_16
REMARK                            x       y       z     vdW  Elec       q    Type
REMARK                         _______ _______ _______ _____ _____    ______ ____
ROOT
ATOM      6  C   UNL     1       3.642   3.490   0.000  0.00  0.00    +0.155 C 
ENDROOT
BRANCH   6   7
ATOM      7  C   UNL     1       2.165   3.750   0.000  0.00  0.00    +0.076 C 
ATOM     10  C   UNL     1       2.165   2.250   0.000  0.00  0.00    +0.035 C 
ATOM     11  C   UNL     1       0.866   1.500   0.000  0.00  0.00    +0.003 C 
ATOM     12  C   UNL     1      -0.433   2.250   0.000  0.00  0.00    +0.000 C 
ATOM     13  C   UNL     1      -0.433   3.750   0.000  0.00  0.00    +0.003 C 
ATOM     14  C   UNL     1       0.866   4.500   0.000  0.00  0.00    +0.035 C 
BRANCH   7   8
ATOM      8  O   UNL     1       2.678   5.160   0.000  0.00  0.00    -0.388 OA
ATOM      9  H   UNL     1       3.633   5.328   0.000  0.00  0.00    +0.210 HD
ENDBRANCH   7   8
ENDBRANCH   6   7
BRANCH   6   4
ATOM      4  C   UNL     1       4.606   4.639   0.000  0.00  0.00    +0.310 C 
ATOM      5  O   UNL     1       6.083   4.378   0.000  0.00  0.00    -0.251 OA
BRANCH   4   3
ATOM      3  O   UNL     1       4.093   6.048   0.000  0.00  0.00    -0.461 OA
BRANCH   3   2
ATOM      1  C   UNL     1       4.695   8.653   0.000  0.00  0.00    +0.044 C 
ATOM      2  C   UNL     1       5.058   7.197   0.000  0.00  0.00    +0.176 C 
ATOM     15  C   UNL     1       6.554   7.093   0.000  0.00  0.00    +0.044 C 
ATOM     16  C   UNL     1       7.116   8.484   0.000  0.00  0.00    +0.004 C 
ATOM     17  C   UNL     1       5.967   9.448   0.000  0.00  0.00    +0.004 C 
ENDBRANCH   3   2
ENDBRANCH   4   3
ENDBRANCH   6   4
TORSDOF 5