REMARK  Name = 54834
REMARK  4 active torsions:
REMARK  status: ('A' for Active; 'I' for Inactive)
REMARK    1  A    between atoms: C_2  and  C_10
REMARK    2  A    between atoms: C_2  and  C_11
REMARK    3  A    between atoms: C_7  and  O_13
REMARK    4  A    between atoms: C_9  and  C_12
REMARK                            x       y       z     vdW  Elec       q    Type
REMARK                         _______ _______ _______ _____ _____    ______ ____
ROOT
ATOM      1  N   UNL     1      -7.066  -1.074   0.000  0.00  0.00    -0.286 NA
ATOM      2  C   UNL     1      -7.066   0.426   0.000  0.00  0.00    +0.056 C 
ATOM      3  C   UNL     1      -7.579   1.836   0.000  0.00  0.00    +0.036 C 
ATOM      4  C   UNL     1      -8.543   0.166   0.000  0.00  0.00    +0.036 C 
ATOM      5  C   UNL     1      -5.766   1.176   0.000  0.00  0.00    +0.034 C 
ATOM      6  C   UNL     1      -4.467   0.426   0.000  0.00  0.00    +0.002 C 
ATOM      7  C   UNL     1      -4.467  -1.074   0.000  0.00  0.00    +0.064 C 
ATOM      8  C   UNL     1      -3.041  -1.538   0.000  0.00  0.00    +0.123 C 
ATOM     11  C   UNL     1      -2.159  -0.324   0.000  0.00  0.00    +0.032 C 
ATOM     12  C   UNL     1      -3.041   0.890   0.000  0.00  0.00    +0.007 C 
ATOM     13  C   UNL     1      -5.766  -1.824   0.000  0.00  0.00    +0.017 C 
ATOM     14  C   UNL     1      -5.766  -3.324   0.000  0.00  0.00    +0.060 C 
ENDROOT
BRANCH   8   9
ATOM      9  O   UNL     1      -2.577  -2.964   0.000  0.00  0.00    -0.391 OA
ATOM     10  H   UNL     1      -3.226  -3.685   0.000  0.00  0.00    +0.210 HD
ENDBRANCH   8   9
TORSDOF 1