REMARK  Name = 54260
REMARK  0 active torsions:
REMARK  status: ('A' for Active; 'I' for Inactive)
REMARK                            x       y       z     vdW  Elec       q    Type
REMARK                         _______ _______ _______ _____ _____    ______ ____
ROOT
ATOM      1  N   UNL     1       2.049   3.000   0.000  0.00  0.00    -0.221 NA
ATOM      2  C   UNL     1       2.049   1.500   0.000  0.00  0.00    +0.215 A 
ATOM      3  N   UNL     1       0.750   0.750   0.000  0.00  0.00    -0.327 N 
ATOM      4  H   UNL     1       0.750  -0.234   0.000  0.00  0.00    +0.145 HD
ATOM      5  H   UNL     1      -0.103   1.242   0.000  0.00  0.00    +0.145 HD
ATOM      6  N   UNL     1       3.348   0.750   0.000  0.00  0.00    -0.193 NA
ATOM      7  C   UNL     1       4.647   1.500   0.000  0.00  0.00    +0.184 A 
ATOM      8  C   UNL     1       4.647   3.000   0.000  0.00  0.00    +0.105 A 
ATOM      9  N   UNL     1       6.074   3.463   0.000  0.00  0.00    -0.324 N 
ATOM     10  H   UNL     1       6.537   4.890   0.000  0.00  0.00    +0.169 HD
ATOM     11  C   UNL     1       6.955   2.250   0.000  0.00  0.00    +0.193 A 
ATOM     12  N   UNL     1       8.455   2.250   0.000  0.00  0.00    -0.329 N 
ATOM     13  H   UNL     1       8.948   3.103   0.000  0.00  0.00    +0.145 HD
ATOM     14  H   UNL     1       8.948   1.397   0.000  0.00  0.00    +0.145 HD
ATOM     15  N   UNL     1       6.074   1.037   0.000  0.00  0.00    -0.195 NA
ATOM     16  C   UNL     1       3.348   3.750   0.000  0.00  0.00    +0.143 A 
ENDROOT
TORSDOF 0