REMARK  Name = 53934
REMARK  8 active torsions:
REMARK  status: ('A' for Active; 'I' for Inactive)
REMARK    1  A    between atoms: N_1  and  N_14
REMARK    2  A    between atoms: C_3  and  O_18
REMARK    3  A    between atoms: C_5  and  O_15
REMARK    4  A    between atoms: C_7  and  C_17
REMARK    5  A    between atoms: C_8  and  O_20
REMARK    6  A    between atoms: O_15  and  C_16
REMARK    7  A    between atoms: O_18  and  C_19
REMARK    8  A    between atoms: O_20  and  C_21
REMARK                            x       y       z     vdW  Elec       q    Type
REMARK                         _______ _______ _______ _____ _____    ______ ____
ROOT
ATOM      3  C   UNL     1      -7.449  -1.065   0.000  0.00  0.00    +0.082 A 
ATOM      4  C   UNL     1      -6.150  -1.815   0.000  0.00  0.00    +0.139 A 
ATOM      7  C   UNL     1      -4.851  -1.065   0.000  0.00  0.00    +0.044 A 
ATOM      8  C   UNL     1      -3.424  -1.529   0.000  0.00  0.00    +0.083 C 
ATOM      9  C   UNL     1      -2.543  -0.315   0.000  0.00  0.00    +0.234 C 
ATOM     10  O   UNL     1      -3.424   0.898   0.000  0.00  0.00    -0.487 OA
ATOM     11  C   UNL     1      -4.851   0.435   0.000  0.00  0.00    +0.172 A 
ATOM     12  C   UNL     1      -6.150   1.185   0.000  0.00  0.00    +0.205 A 
ATOM     15  C   UNL     1      -7.449   0.435   0.000  0.00  0.00    +0.177 A 
ENDROOT
BRANCH   3   2
ATOM      1  N   UNL     1     -10.047  -1.065   0.000  0.00  0.00    -0.186 NA
ATOM      2  C   UNL     1      -8.748  -1.815   0.000  0.00  0.00    +0.145 C 
BRANCH   1  18
ATOM     18  N   UNL     1     -11.346  -1.815   0.000  0.00  0.00    -0.191 N 
ATOM     19  H   UNL     1     -12.199  -1.323   0.000  0.00  0.00    +0.179 HD
ATOM     20  C   UNL     1     -11.346  -3.315   0.000  0.00  0.00    +0.317 C 
ATOM     21  O   UNL     1     -10.047  -4.065   0.000  0.00  0.00    -0.251 OA
ATOM     22  N   UNL     1     -12.645  -4.065   0.000  0.00  0.00    -0.312 N 
ATOM     23  H   UNL     1     -12.645  -5.050   0.000  0.00  0.00    +0.147 HD
ATOM     24  H   UNL     1     -13.498  -3.573   0.000  0.00  0.00    +0.147 HD
ENDBRANCH   1  18
ENDBRANCH   3   2
BRANCH   4   5
ATOM      5  O   UNL     1      -6.150  -3.315   0.000  0.00  0.00    -0.494 OA
ATOM      6  C   UNL     1      -7.449  -4.065   0.000  0.00  0.00    +0.277 C 
ENDBRANCH   4   5
BRANCH  12  13
ATOM     13  O   UNL     1      -6.150   2.685   0.000  0.00  0.00    -0.488 OA
ATOM     14  C   UNL     1      -7.449   3.435   0.000  0.00  0.00    +0.277 C 
ENDBRANCH  12  13
BRANCH  15  16
ATOM     16  O   UNL     1      -8.748   1.185   0.000  0.00  0.00    -0.491 OA
ATOM     17  C   UNL     1      -8.748   2.685   0.000  0.00  0.00    +0.277 C 
ENDBRANCH  15  16
TORSDOF 5