REMARK  Name = 57165
REMARK  3 active torsions:
REMARK  status: ('A' for Active; 'I' for Inactive)
REMARK    1  A    between atoms: S_3  and  C_6
REMARK    2  A    between atoms: S_3  and  C_10
REMARK    3  A    between atoms: C_11  and  C_14
REMARK                            x       y       z     vdW  Elec       q    Type
REMARK                         _______ _______ _______ _____ _____    ______ ____
ROOT
ATOM      1  N   UNL     1      -2.223   5.149   0.000  0.00  0.00    -0.245 NA
ATOM      2  C   UNL     1      -3.522   4.399   0.000  0.00  0.00    +0.131 A 
ATOM      3  C   UNL     1      -3.522   2.900   0.000  0.00  0.00    +0.131 A 
ATOM      4  N   UNL     1      -2.223   2.150   0.000  0.00  0.00    -0.256 NA
ATOM      5  C   UNL     1      -0.924   2.900   0.000  0.00  0.00    +0.070 A 
ATOM      6  C   UNL     1       0.375   2.150   0.000  0.00  0.00    +0.068 C 
ATOM      7  C   UNL     1      -0.924   4.399   0.000  0.00  0.00    +0.123 A 
ENDROOT
BRANCH   7   8
ATOM      8  S   UNL     1       0.375   5.149   0.000  0.00  0.00    -0.068 S 
BRANCH   8   9
ATOM      9  C   UNL     1       0.375   6.649   0.000  0.00  0.00    +0.014 A 
ATOM     10  C   UNL     1       1.674   7.399   0.000  0.00  0.00    +0.015 A 
ATOM     11  C   UNL     1       1.674   8.899   0.000  0.00  0.00    +0.001 A 
ATOM     12  C   UNL     1       0.375   9.649   0.000  0.00  0.00    +0.000 A 
ATOM     13  C   UNL     1      -0.924   8.899   0.000  0.00  0.00    +0.001 A 
ATOM     14  C   UNL     1      -0.924   7.399   0.000  0.00  0.00    +0.015 A 
ENDBRANCH   8   9
ENDBRANCH   7   8
TORSDOF 2