REMARK  Name = 55770
REMARK  1 active torsions:
REMARK  status: ('A' for Active; 'I' for Inactive)
REMARK    1  A    between atoms: C_2  and  C_12
REMARK                            x       y       z     vdW  Elec       q    Type
REMARK                         _______ _______ _______ _____ _____    ______ ____
ROOT
ATOM      1 CL   UNL     1       1.490  -9.419   0.000  0.00  0.00    -0.083 Cl
ATOM      2  C   UNL     1       1.490  -7.920   0.000  0.00  0.00    +0.049 A 
ATOM      3  C   UNL     1       0.191  -7.170   0.000  0.00  0.00    +0.001 A 
ATOM      4  C   UNL     1      -1.108  -7.920   0.000  0.00  0.00    +0.010 A 
ATOM      5  C   UNL     1      -2.407  -7.170   0.000  0.00  0.00    +0.001 A 
ATOM      6  C   UNL     1      -2.407  -5.670   0.000  0.00  0.00    +0.001 A 
ATOM      7  C   UNL     1      -1.108  -4.920   0.000  0.00  0.00    +0.009 A 
ATOM      8  C   UNL     1       0.191  -5.670   0.000  0.00  0.00    -0.004 A 
ATOM      9  C   UNL     1       1.490  -4.920   0.000  0.00  0.00    +0.044 A 
ATOM     15  C   UNL     1       2.789  -5.670   0.000  0.00  0.00    +0.015 A 
ATOM     16  C   UNL     1       2.789  -7.170   0.000  0.00  0.00    +0.021 A 
ENDROOT
BRANCH   9  10
ATOM     10  C   UNL     1       1.490  -3.420   0.000  0.00  0.00    +0.242 C 
ATOM     11  N   UNL     1       2.789  -2.670   0.000  0.00  0.00    -0.325 N 
ATOM     12  H   UNL     1       2.789  -1.685   0.000  0.00  0.00    +0.145 HD
ATOM     13  H   UNL     1       3.642  -3.162   0.000  0.00  0.00    +0.145 HD
ATOM     14  O   UNL     1       0.191  -2.670   0.000  0.00  0.00    -0.270 OA
ENDBRANCH   9  10
TORSDOF 1