REMARK  Name = 525721
REMARK  4 active torsions:
REMARK  status: ('A' for Active; 'I' for Inactive)
REMARK    1  A    between atoms: N_13  and  C_15
REMARK    2  A    between atoms: C_15  and  C_16
REMARK    3  A    between atoms: C_16  and  C_17
REMARK    4  A    between atoms: C_17  and  O_19
REMARK                            x       y       z     vdW  Elec       q    Type
REMARK                         _______ _______ _______ _____ _____    ______ ____
ROOT
ATOM      1  C   UNL     1       8.169   2.150   0.000  0.00  0.00    +0.017 A 
ATOM      2  C   UNL     1       6.870   1.400   0.000  0.00  0.00    +0.034 A 
ATOM      3  C   UNL     1       6.870  -0.101   0.000  0.00  0.00    +0.048 A 
ATOM      4  N   UNL     1       5.571  -0.851   0.000  0.00  0.00    -0.298 N 
ATOM     11  C   UNL     1       4.272  -0.101   0.000  0.00  0.00    +0.048 A 
ATOM     12  C   UNL     1       2.973  -0.851   0.000  0.00  0.00    +0.024 A 
ATOM     13  C   UNL     1       1.674  -0.101   0.000  0.00  0.00    +0.002 A 
ATOM     14  C   UNL     1       1.674   1.400   0.000  0.00  0.00    +0.001 A 
ATOM     15  C   UNL     1       2.973   2.150   0.000  0.00  0.00    +0.017 A 
ATOM     16  C   UNL     1       4.272   1.400   0.000  0.00  0.00    +0.034 A 
ATOM     17  C   UNL     1       8.169  -0.851   0.000  0.00  0.00    +0.024 A 
ATOM     18  C   UNL     1       9.468  -0.101   0.000  0.00  0.00    +0.002 A 
ATOM     19  S   UNL     1       5.571   2.150   0.000  0.00  0.00    -0.086 S 
ATOM     20  C   UNL     1       9.468   1.400   0.000  0.00  0.00    +0.001 A 
ENDROOT
BRANCH   4   5
ATOM      5  C   UNL     1       5.571  -2.350   0.000  0.00  0.00    +0.122 C 
BRANCH   5   6
ATOM      6  C   UNL     1       6.981  -2.864   0.000  0.00  0.00    +0.139 C 
BRANCH   6   7
ATOM      7  C   UNL     1       7.241  -4.341   0.000  0.00  0.00    +0.306 C 
ATOM     10  O   UNL     1       6.092  -5.305   0.000  0.00  0.00    -0.251 OA
BRANCH   7   8
ATOM      8  O   UNL     1       8.651  -4.854   0.000  0.00  0.00    -0.481 OA
ATOM      9  H   UNL     1       8.813  -5.776   0.000  0.00  0.00    +0.295 HD
ENDBRANCH   7   8
ENDBRANCH   6   7
ENDBRANCH   5   6
ENDBRANCH   4   5
TORSDOF 4