REMARK  Name = 52241
REMARK  5 active torsions:
REMARK  status: ('A' for Active; 'I' for Inactive)
REMARK    1  A    between atoms: C_1  and  C_8
REMARK    2  A    between atoms: C_2  and  C_21
REMARK    3  A    between atoms: C_11  and  C_21
REMARK    4  A    between atoms: C_17  and  C_21
REMARK    5  A    between atoms: C_21  and  O_22
REMARK                            x       y       z     vdW  Elec       q    Type
REMARK                         _______ _______ _______ _____ _____    ______ ____
ROOT
ATOM      3  C   UNL     1      -6.770   1.226   0.000  0.00  0.00    +0.178 C 
ENDROOT
BRANCH   3   6
ATOM      6  C   UNL     1      -8.069   0.476   0.000  0.00  0.00    +0.001 A 
ATOM      7  C   UNL     1      -8.069  -1.024   0.000  0.00  0.00    +0.008 A 
ATOM      8  C   UNL     1      -9.368  -1.774   0.000  0.00  0.00    +0.000 A 
ATOM      9  C   UNL     1     -10.667  -1.024   0.000  0.00  0.00    +0.000 A 
ATOM     10  C   UNL     1     -10.667   0.476   0.000  0.00  0.00    +0.000 A 
ATOM     11  C   UNL     1      -9.368   1.226   0.000  0.00  0.00    +0.008 A 
ENDBRANCH   3   6
BRANCH   3  12
ATOM     12  C   UNL     1      -5.471   1.976   0.000  0.00  0.00    +0.001 A 
ATOM     13  C   UNL     1      -4.172   1.226   0.000  0.00  0.00    +0.008 A 
ATOM     14  C   UNL     1      -2.873   1.976   0.000  0.00  0.00    +0.000 A 
ATOM     15  C   UNL     1      -2.873   3.477   0.000  0.00  0.00    +0.000 A 
ATOM     16  C   UNL     1      -4.172   4.226   0.000  0.00  0.00    +0.000 A 
ATOM     17  C   UNL     1      -5.471   3.477   0.000  0.00  0.00    +0.008 A 
ENDBRANCH   3  12
BRANCH   3   2
ATOM      1  C   UNL     1      -8.270   3.825   0.000  0.00  0.00    -0.063 C 
ATOM      2  C   UNL     1      -7.520   2.526   0.000  0.00  0.00    -0.053 C 
BRANCH   1  18
ATOM     18  C   UNL     1      -9.020   5.124   0.000  0.00  0.00    +0.025 A 
ATOM     19  C   UNL     1     -10.520   5.124   0.000  0.00  0.00    +0.017 A 
ATOM     20  C   UNL     1     -11.270   6.423   0.000  0.00  0.00    +0.001 A 
ATOM     21  C   UNL     1     -10.520   7.722   0.000  0.00  0.00    +0.000 A 
ATOM     22  C   UNL     1      -9.020   7.722   0.000  0.00  0.00    +0.001 A 
ATOM     23  C   UNL     1      -8.270   6.423   0.000  0.00  0.00    +0.017 A 
ENDBRANCH   1  18
ENDBRANCH   3   2
BRANCH   3   4
ATOM      4  O   UNL     1      -6.020  -0.072   0.000  0.00  0.00    -0.369 OA
ATOM      5  H   UNL     1      -6.505  -0.913   0.000  0.00  0.00    +0.212 HD
ENDBRANCH   3   4
TORSDOF 5