REMARK  Name = 404241
REMARK  5 active torsions:
REMARK  status: ('A' for Active; 'I' for Inactive)
REMARK    1  A    between atoms: N9_5  and  C1*_11
REMARK    2  A    between atoms: C2*_12  and  O2*_19
REMARK    3  A    between atoms: C3*_13  and  O3*_18
REMARK    4  A    between atoms: C4*_14  and  C5*_17
REMARK    5  A    between atoms: O5*_16  and  C5*_17
REMARK                            x       y       z     vdW  Elec       q    Type
REMARK                         _______ _______ _______ _____ _____    ______ ____
ROOT
ATOM      1  N1    A A   1       2.324  -1.025   0.000  0.00  0.00    -0.219 NA
ATOM      2  C2    A A   1       2.324  -2.525   0.000  0.00  0.00    +0.225 A 
ATOM      3  N3    A A   1       3.623  -3.275   0.000  0.00  0.00    -0.216 NA
ATOM      4  C4    A A   1       4.922  -2.525   0.000  0.00  0.00    +0.167 A 
ATOM      5  C5    A A   1       4.922  -1.025   0.000  0.00  0.00    +0.147 A 
ATOM      6  N7    A A   1       6.348  -0.561   0.000  0.00  0.00    -0.231 NA
ATOM      7  C8    A A   1       7.230  -1.775   0.000  0.00  0.00    +0.203 A 
ATOM      8  N9    A A   1       6.348  -2.988   0.000  0.00  0.00    -0.286 N 
ATOM     21  C6    A A   1       3.623  -0.275   0.000  0.00  0.00    +0.147 A 
ATOM     22  N6    A A   1       3.623   1.226   0.000  0.00  0.00    -0.341 N 
ATOM     23  H61   A A   1       2.770   1.718   0.000  0.00  0.00    +0.144 HD
ATOM     24  H62   A A   1       4.475   1.718   0.000  0.00  0.00    +0.144 HD
ENDROOT
BRANCH   8   9
ATOM      9  C1*   A A   1       6.812  -4.415   0.000  0.00  0.00    +0.253 C 
ATOM     10  C2*   A A   1       8.238  -4.878   0.000  0.00  0.00    +0.195 C 
ATOM     13  C3*   A A   1       8.238  -6.378   0.000  0.00  0.00    +0.178 C 
ATOM     16  C4*   A A   1       6.812  -6.842   0.000  0.00  0.00    +0.177 C 
ATOM     20  O4*   A A   1       5.930  -5.628   0.000  0.00  0.00    -0.346 OA
BRANCH  10  11
ATOM     11  O2*   A A   1       7.025  -5.760   0.000  0.00  0.00    -0.385 OA
ATOM     12  H2*   A A   1       6.139  -5.365   0.000  0.00  0.00    +0.210 HD
ENDBRANCH  10  11
BRANCH  13  14
ATOM     14  O3*   A A   1       9.452  -7.260   0.000  0.00  0.00    -0.386 OA
ATOM     15  H3*   A A   1       9.351  -8.224   0.000  0.00  0.00    +0.210 HD
ENDBRANCH  13  14
BRANCH  16  17
ATOM     17  C5*   A A   1       6.348  -8.268   0.000  0.00  0.00    +0.190 C 
BRANCH  17  18
ATOM     18  O5*   A A   1       7.352  -9.383   0.000  0.00  0.00    -0.392 OA
ATOM     19  H5*   A A   1       7.052 -10.306   0.000  0.00  0.00    +0.210 HD
ENDBRANCH  17  18
ENDBRANCH  16  17
ENDBRANCH   8   9
TORSDOF 5