REMARK  Name = 405158
REMARK  3 active torsions:
REMARK  status: ('A' for Active; 'I' for Inactive)
REMARK    1  A    between atoms: C_4  and  C_16
REMARK    2  A    between atoms: N_14  and  O_15
REMARK    3  A    between atoms: C_16  and  C_17
REMARK                            x       y       z     vdW  Elec       q    Type
REMARK                         _______ _______ _______ _____ _____    ______ ____
ROOT
ATOM      6  C   UNL     1      -5.946  -3.750   0.000  0.00  0.00    +0.066 C 
ATOM      9  C   UNL     1      -7.245  -4.500   0.000  0.00  0.00    -0.007 C 
ATOM     10  C   UNL     1      -7.245  -6.000   0.000  0.00  0.00    +0.011 C 
ATOM     11  C   UNL     1      -8.544  -6.750   0.000  0.00  0.00    +0.031 C 
ATOM     12  C   UNL     1      -9.843  -6.000   0.000  0.00  0.00    +0.103 C 
ATOM     13  N   UNL     1     -11.142  -6.750   0.000  0.00  0.00    -0.088 NA
ATOM     16  C   UNL     1      -9.843  -4.500   0.000  0.00  0.00    +0.031 C 
ATOM     17  C   UNL     1      -8.544  -3.750   0.000  0.00  0.00    +0.011 C 
ENDROOT
BRANCH   6   5
ATOM      1 CL   UNL     1      -0.750  -6.750   0.000  0.00  0.00    -0.084 Cl
ATOM      2  C   UNL     1      -2.049  -6.000   0.000  0.00  0.00    +0.041 A 
ATOM      3  C   UNL     1      -3.348  -6.750   0.000  0.00  0.00    +0.020 A 
ATOM      4  C   UNL     1      -4.647  -6.000   0.000  0.00  0.00    +0.010 A 
ATOM      5  C   UNL     1      -4.647  -4.500   0.000  0.00  0.00    -0.007 A 
ATOM     18  C   UNL     1      -3.348  -3.750   0.000  0.00  0.00    +0.010 A 
ATOM     19  C   UNL     1      -2.049  -4.500   0.000  0.00  0.00    +0.020 A 
ENDBRANCH   6   5
BRANCH   6   7
ATOM      7  C   UNL     1      -5.946  -2.250   0.000  0.00  0.00    +0.100 C 
ATOM      8  N   UNL     1      -5.946  -0.750   0.000  0.00  0.00    -0.191 NA
ENDBRANCH   6   7
BRANCH  13  14
ATOM     14  O   UNL     1     -12.441  -6.000   0.000  0.00  0.00    -0.409 OA
ATOM     15  H   UNL     1     -12.441  -5.063   0.000  0.00  0.00    +0.328 HD
ENDBRANCH  13  14
TORSDOF 3