REMARK  Name = 407335
REMARK  6 active torsions:
REMARK  status: ('A' for Active; 'I' for Inactive)
REMARK    1  A    between atoms: N_5  and  C_14
REMARK    2  A    between atoms: C_11  and  C_20
REMARK    3  A    between atoms: C_12  and  O_16
REMARK    4  A    between atoms: O_16  and  C_17
REMARK    5  A    between atoms: C_17  and  C_19
REMARK    6  A    between atoms: C_20  and  O_21
REMARK                            x       y       z     vdW  Elec       q    Type
REMARK                         _______ _______ _______ _____ _____    ______ ____
ROOT
ATOM      9  C   UNL     1       4.172   6.274   0.000  0.00  0.00    +0.227 C 
ATOM     10  C   UNL     1       5.542   5.664   0.000  0.00  0.00    +0.102 C 
ATOM     11  C   UNL     1       6.546   6.779   0.000  0.00  0.00    +0.212 C 
ATOM     16  C   UNL     1       5.796   8.078   0.000  0.00  0.00    +0.187 C 
ATOM     20  O   UNL     1       4.328   7.766   0.000  0.00  0.00    -0.347 OA
ENDROOT
BRANCH   9   8
ATOM      1  F   UNL     1      -1.025   6.274   0.000  0.00  0.00    -0.198 F 
ATOM      2  C   UNL     1       0.275   5.524   0.000  0.00  0.00    +0.204 A 
ATOM      3  C   UNL     1       0.275   4.024   0.000  0.00  0.00    +0.289 A 
ATOM      4  N   UNL     1       1.574   3.275   0.000  0.00  0.00    -0.273 N 
ATOM      5  H   UNL     1       1.574   1.775   0.000  0.00  0.00    +0.174 HD
ATOM      6  C   UNL     1       2.873   4.024   0.000  0.00  0.00    +0.331 A 
ATOM      7  O   UNL     1       4.172   3.275   0.000  0.00  0.00    -0.246 OA
ATOM      8  N   UNL     1       2.873   5.524   0.000  0.00  0.00    -0.271 N 
ATOM     21  O   UNL     1      -1.025   3.275   0.000  0.00  0.00    -0.265 OA
ATOM     22  C   UNL     1       1.574   6.274   0.000  0.00  0.00    +0.137 A 
ENDBRANCH   9   8
BRANCH  11  12
ATOM     12  O   UNL     1       8.037   6.622   0.000  0.00  0.00    -0.459 OA
BRANCH  12  13
ATOM     13  C   UNL     1       8.919   7.836   0.000  0.00  0.00    +0.304 C 
ATOM     14  C   UNL     1       8.309   9.206   0.000  0.00  0.00    +0.136 C 
ATOM     15  O   UNL     1      10.411   7.679   0.000  0.00  0.00    -0.251 OA
ENDBRANCH  12  13
ENDBRANCH  11  12
BRANCH  16  17
ATOM     17  C   UNL     1       6.406   9.448   0.000  0.00  0.00    +0.191 C 
BRANCH  17  18
ATOM     18  O   UNL     1       5.524  10.662   0.000  0.00  0.00    -0.392 OA
ATOM     19  H   UNL     1       5.919  11.548   0.000  0.00  0.00    +0.210 HD
ENDBRANCH  17  18
ENDBRANCH  16  17
TORSDOF 5