REMARK  Name = 407806
REMARK  5 active torsions:
REMARK  status: ('A' for Active; 'I' for Inactive)
REMARK    1  A    between atoms: C_2  and  O_29
REMARK    2  A    between atoms: C_5  and  C_28
REMARK    3  A    between atoms: C_11  and  O_30
REMARK    4  A    between atoms: C_12  and  C_27
REMARK    5  A    between atoms: C_17  and  C_18
REMARK                            x       y       z     vdW  Elec       q    Type
REMARK                         _______ _______ _______ _____ _____    ______ ____
ROOT
ATOM      1  C   UNL     1       0.239   5.586   0.000  0.00  0.00    +0.032 C 
ATOM      2  C   UNL     1       1.538   6.336   0.000  0.00  0.00    +0.010 C 
ATOM      3  C   UNL     1       2.837   5.586   0.000  0.00  0.00    -0.026 C 
ATOM      4  C   UNL     1       2.837   7.086   0.000  0.00  0.00    +0.012 C 
ATOM      5  C   UNL     1       4.136   6.336   0.000  0.00  0.00    +0.001 C 
ATOM      6  C   UNL     1       4.136   7.836   0.000  0.00  0.00    +0.005 C 
ATOM      7  C   UNL     1       5.435   8.586   0.000  0.00  0.00    +0.010 C 
ATOM      8  C   UNL     1       6.734   7.836   0.000  0.00  0.00    +0.004 C 
ATOM      9  C   UNL     1       6.891   9.328   0.000  0.00  0.00    +0.014 C 
ATOM     10  C   UNL     1       8.161   8.300   0.000  0.00  0.00    +0.027 C 
ATOM     17  C   UNL     1       9.042   7.086   0.000  0.00  0.00    +0.011 C 
ATOM     18  C   UNL     1       8.161   5.873   0.000  0.00  0.00    +0.036 C 
ATOM     19  C   UNL     1       6.734   6.336   0.000  0.00  0.00    +0.075 C 
ATOM     22  C   UNL     1       5.435   5.586   0.000  0.00  0.00    +0.025 C 
ATOM     23  C   UNL     1       5.435   4.086   0.000  0.00  0.00    +0.007 C 
ATOM     24  C   UNL     1       4.136   3.336   0.000  0.00  0.00    +0.004 C 
ATOM     25  C   UNL     1       2.837   4.086   0.000  0.00  0.00    -0.002 C 
ATOM     26  C   UNL     1       1.538   3.336   0.000  0.00  0.00    +0.035 C 
ATOM     27  C   UNL     1       0.239   4.086   0.000  0.00  0.00    +0.115 C 
ENDROOT
BRANCH  10  11
ATOM     11  C   UNL     1       8.624   9.726   0.000  0.00  0.00    -0.022 C 
ATOM     12  C   UNL     1       7.742  10.940   0.000  0.00  0.00    +0.264 C 
ATOM     13  O   UNL     1       8.624  12.153   0.000  0.00  0.00    -0.457 OA
ATOM     14  C   UNL     1      10.051  11.690   0.000  0.00  0.00    +0.332 C 
ATOM     15  O   UNL     1      11.264  12.572   0.000  0.00  0.00    -0.246 OA
ATOM     16  C   UNL     1      10.051  10.190   0.000  0.00  0.00    +0.094 C 
ENDBRANCH  10  11
BRANCH  19  20
ATOM     20  O   UNL     1       6.891   4.845   0.000  0.00  0.00    -0.388 OA
ATOM     21  H   UNL     1       6.106   4.274   0.000  0.00  0.00    +0.210 HD
ENDBRANCH  19  20
BRANCH  27  28
ATOM     28  O   UNL     1      -1.060   3.336   0.000  0.00  0.00    -0.392 OA
ATOM     29  H   UNL     1      -1.900   3.821   0.000  0.00  0.00    +0.210 HD
ENDBRANCH  27  28
TORSDOF 3