REMARK  Name = 400944
REMARK  0 active torsions:
REMARK  status: ('A' for Active; 'I' for Inactive)
REMARK                            x       y       z     vdW  Elec       q    Type
REMARK                         _______ _______ _______ _____ _____    ______ ____
ROOT
ATOM      1  O   UNL     1      -5.471  -5.524   0.000  0.00  0.00    -0.284 OA
ATOM      2  C   UNL     1      -4.172  -4.774   0.000  0.00  0.00    +0.226 C 
ATOM      3  C   UNL     1      -2.873  -5.524   0.000  0.00  0.00    +0.234 C 
ATOM      4  C   UNL     1      -1.573  -4.774   0.000  0.00  0.00    +0.051 A 
ATOM      5  C   UNL     1      -0.275  -5.524   0.000  0.00  0.00    +0.015 A 
ATOM      6  C   UNL     1       1.025  -4.774   0.000  0.00  0.00    +0.020 A 
ATOM      7  C   UNL     1       1.025  -3.275   0.000  0.00  0.00    +0.111 A 
ATOM      8  N   UNL     1      -0.275  -2.525   0.000  0.00  0.00    -0.255 NA
ATOM      9  C   UNL     1      -1.573  -3.275   0.000  0.00  0.00    +0.075 A 
ATOM     10  C   UNL     1      -2.873  -2.525   0.000  0.00  0.00    +0.032 C 
ATOM     11  O   UNL     1      -2.873  -7.024   0.000  0.00  0.00    -0.283 OA
ATOM     12  C   UNL     1      -4.172  -3.275   0.000  0.00  0.00    +0.057 C 
ENDROOT
TORSDOF 0