REMARK  Name = 4644
REMARK  10 active torsions:
REMARK  status: ('A' for Active; 'I' for Inactive)
REMARK    1  A    between atoms: C_1  and  C_28
REMARK    2  A    between atoms: C_5  and  C_31
REMARK    3  A    between atoms: C_10  and  C_30
REMARK    4  A    between atoms: C_13  and  C_27
REMARK    5  A    between atoms: C_14  and  C_24
REMARK    6  A    between atoms: C_19  and  O_22
REMARK    7  A    between atoms: C_21  and  C_23
REMARK    8  A    between atoms: C_21  and  C_25
REMARK    9  A    between atoms: C_28  and  C_29
REMARK   10  A    between atoms: C_31  and  O_32
REMARK                            x       y       z     vdW  Elec       q    Type
REMARK                         _______ _______ _______ _____ _____    ______ ____
ROOT
ATOM      1  C   UNL     1       0.023  -4.314   0.000  0.00  0.00    +0.018 C 
ATOM      5  C   UNL     1       0.023  -5.814   0.000  0.00  0.00    +0.008 C 
ATOM      6  C   UNL     1       1.449  -6.277   0.000  0.00  0.00    -0.002 C 
ATOM     10  C   UNL     1       1.761  -7.745   0.000  0.00  0.00    +0.010 C 
ATOM     11  C   UNL     1       0.646  -8.748   0.000  0.00  0.00    +0.008 C 
ATOM     12  C   UNL     1      -0.780  -8.285   0.000  0.00  0.00    -0.023 C 
ATOM     13  C   UNL     1      -0.468  -9.752   0.000  0.00  0.00    +0.012 C 
ATOM     14  C   UNL     1      -1.895  -9.289   0.000  0.00  0.00    -0.023 C 
ATOM     15  C   UNL     1      -0.468  -9.752   0.000  0.00  0.00    +0.012 C 
ATOM     16  C   UNL     1      -1.583 -10.756   0.000  0.00  0.00    +0.008 C 
ATOM     17  C   UNL     1      -2.698 -11.759   0.000  0.00  0.00    +0.005 C 
ATOM     18  C   UNL     1      -4.124 -11.296   0.000  0.00  0.00    +0.003 C 
ATOM     19  C   UNL     1      -5.239 -12.300   0.000  0.00  0.00    -0.006 C 
ATOM     20  C   UNL     1      -4.057 -13.223   0.000  0.00  0.00    +0.014 C 
ATOM     21  C   UNL     1      -5.943 -13.624   0.000  0.00  0.00    +0.014 C 
ATOM     22  C   UNL     1      -6.666 -11.836   0.000  0.00  0.00    +0.120 C 
ATOM     25  C   UNL     1      -6.978 -10.369   0.000  0.00  0.00    +0.032 C 
ATOM     26  C   UNL     1      -5.863  -9.365   0.000  0.00  0.00    +0.010 C 
ATOM     27  C   UNL     1      -4.436  -9.829   0.000  0.00  0.00    -0.025 C 
ATOM     28  C   UNL     1      -4.748  -8.361   0.000  0.00  0.00    +0.012 C 
ATOM     29  C   UNL     1      -3.322  -8.825   0.000  0.00  0.00    +0.002 C 
ATOM     30  C   UNL     1      -3.633  -7.358   0.000  0.00  0.00    +0.005 C 
ATOM     31  C   UNL     1      -2.519  -6.354   0.000  0.00  0.00    +0.005 C 
ATOM     32  C   UNL     1       2.331  -5.064   0.000  0.00  0.00    +0.010 C 
ATOM     33  C   UNL     1      -1.092  -6.818   0.000  0.00  0.00    -0.000 C 
ATOM     34  C   UNL     1       1.449  -3.850   0.000  0.00  0.00    +0.009 C 
ENDROOT
BRANCH   1   2
ATOM      2  C   UNL     1      -1.191  -3.432   0.000  0.00  0.00    -0.076 C 
ATOM      3  C   UNL     1      -1.034  -1.940   0.000  0.00  0.00    +0.039 C 
ATOM      4  C   UNL     1      -2.561  -4.042   0.000  0.00  0.00    +0.007 C 
ENDBRANCH   1   2
BRANCH  22  23
ATOM     23  O   UNL     1      -7.780 -12.840   0.000  0.00  0.00    -0.391 OA
ATOM     24  H   UNL     1      -8.703 -12.540   0.000  0.00  0.00    +0.210 HD
ENDBRANCH  22  23
BRANCH   6   7
ATOM      7  C   UNL     1       2.916  -6.589   0.000  0.00  0.00    +0.163 C 
BRANCH   7   8
ATOM      8  O   UNL     1       3.920  -5.474   0.000  0.00  0.00    -0.394 OA
ATOM      9  H   UNL     1       4.869  -5.676   0.000  0.00  0.00    +0.209 HD
ENDBRANCH   7   8
ENDBRANCH   6   7
TORSDOF 4