REMARK  Name = 40666
REMARK  8 active torsions:
REMARK  status: ('A' for Active; 'I' for Inactive)
REMARK    1  A    between atoms: S_2  and  C_13
REMARK    2  A    between atoms: S_2  and  C_27
REMARK    3  A    between atoms: N_6  and  C1*_18
REMARK    4  A    between atoms: C_11  and  C_27
REMARK    5  A    between atoms: C2*_19  and  O2*_22
REMARK    6  A    between atoms: C3*_20  and  O3*_26
REMARK    7  A    between atoms: C4*_21  and  C5*_23
REMARK    8  A    between atoms: C5*_23  and  O5*_25
REMARK                            x       y       z     vdW  Elec       q    Type
REMARK                         _______ _______ _______ _____ _____    ______ ____
ROOT
ATOM      1  N   UNL     1       7.284   2.116   0.000  0.00  0.00    -0.206 NA
ATOM      2  C   UNL     1       7.284   0.616   0.000  0.00  0.00    +0.216 A 
ATOM      3  N   UNL     1       5.985  -0.134   0.000  0.00  0.00    -0.327 N 
ATOM      4  H   UNL     1       5.985  -1.118   0.000  0.00  0.00    +0.145 HD
ATOM      5  H   UNL     1       5.132   0.358   0.000  0.00  0.00    +0.145 HD
ATOM      6  N   UNL     1       8.583  -0.134   0.000  0.00  0.00    -0.195 NA
ATOM      7  C   UNL     1       9.882   0.616   0.000  0.00  0.00    +0.169 A 
ATOM      8  C   UNL     1       9.882   2.116   0.000  0.00  0.00    +0.140 A 
ATOM      9  N   UNL     1      11.309   2.579   0.000  0.00  0.00    -0.231 NA
ATOM     10  C   UNL     1      12.190   1.366   0.000  0.00  0.00    +0.203 A 
ATOM     11  N   UNL     1      11.309   0.153   0.000  0.00  0.00    -0.285 N 
ATOM     24  C   UNL     1       8.583   2.866   0.000  0.00  0.00    +0.130 A 
ENDROOT
BRANCH  11  12
ATOM     12  C1* UNL     1      11.772  -1.274   0.000  0.00  0.00    +0.253 C 
ATOM     13  C2* UNL     1      13.199  -1.738   0.000  0.00  0.00    +0.195 C 
ATOM     16  C3* UNL     1      13.199  -3.238   0.000  0.00  0.00    +0.178 C 
ATOM     19  C4* UNL     1      11.772  -3.701   0.000  0.00  0.00    +0.177 C 
ATOM     23  O4* UNL     1      10.890  -2.488   0.000  0.00  0.00    -0.346 OA
BRANCH  13  14
ATOM     14  O2* UNL     1      14.412  -0.856   0.000  0.00  0.00    -0.385 OA
ATOM     15  H2* UNL     1      15.298  -1.250   0.000  0.00  0.00    +0.210 HD
ENDBRANCH  13  14
BRANCH  16  17
ATOM     17  O3* UNL     1      14.412  -4.119   0.000  0.00  0.00    -0.386 OA
ATOM     18  H3* UNL     1      14.311  -5.084   0.000  0.00  0.00    +0.210 HD
ENDBRANCH  16  17
BRANCH  19  20
ATOM     20  C5* UNL     1      11.309  -5.128   0.000  0.00  0.00    +0.190 C 
BRANCH  20  21
ATOM     21  O5* UNL     1      12.312  -6.242   0.000  0.00  0.00    -0.392 OA
ATOM     22  H5* UNL     1      12.012  -7.165   0.000  0.00  0.00    +0.210 HD
ENDBRANCH  20  21
ENDBRANCH  19  20
ENDBRANCH  11  12
BRANCH  24  25
ATOM     25  S   UNL     1       8.583   4.366   0.000  0.00  0.00    -0.099 S 
BRANCH  25  26
ATOM     26  C   UNL     1       7.284   5.116   0.000  0.00  0.00    +0.112 C 
BRANCH  26  27
ATOM     27  C   UNL     1       5.985   4.366   0.000  0.00  0.00    -0.019 A 
ATOM     28  C   UNL     1       5.985   2.866   0.000  0.00  0.00    +0.006 A 
ATOM     29  C   UNL     1       4.686   2.116   0.000  0.00  0.00    +0.000 A 
ATOM     30  C   UNL     1       3.387   2.866   0.000  0.00  0.00    +0.001 A 
ATOM     31  C   UNL     1       3.387   4.366   0.000  0.00  0.00    +0.020 A 
ATOM     32  C   UNL     1       4.686   5.116   0.000  0.00  0.00    +0.045 A 
ATOM     33 CL   UNL     1       4.686   6.616   0.000  0.00  0.00    -0.083 Cl
ENDBRANCH  26  27
ENDBRANCH  25  26
ENDBRANCH  24  25
TORSDOF 8