REMARK  Name = 39863
REMARK  5 active torsions:
REMARK  status: ('A' for Active; 'I' for Inactive)
REMARK    1  A    between atoms: C_7  and  O_34
REMARK    2  A    between atoms: C_7  and  C_35
REMARK    3  A    between atoms: C_8  and  C_33
REMARK    4  A    between atoms: C_16  and  C_32
REMARK    5  A    between atoms: C_25  and  C_26
REMARK                            x       y       z     vdW  Elec       q    Type
REMARK                         _______ _______ _______ _____ _____    ______ ____
ROOT
ATOM      1  N   UNL     1     -10.638  -7.008   0.000  0.00  0.00    -0.235 NA
ATOM      2  C   UNL     1     -10.638  -8.508   0.000  0.00  0.00    +0.160 A 
ATOM      9  N   UNL     1      -9.339  -9.258   0.000  0.00  0.00    -0.232 NA
ATOM     10  C   UNL     1      -8.040  -8.508   0.000  0.00  0.00    +0.049 A 
ATOM     11  C   UNL     1      -6.741  -9.258   0.000  0.00  0.00    +0.060 C 
ATOM     12  C   UNL     1      -5.442  -8.508   0.000  0.00  0.00    +0.001 C 
ATOM     13  C   UNL     1      -4.143  -9.258   0.000  0.00  0.00    +0.005 C 
ATOM     14  C   UNL     1      -2.844  -8.508   0.000  0.00  0.00    +0.004 C 
ATOM     15  C   UNL     1      -2.844  -7.008   0.000  0.00  0.00    -0.004 C 
ATOM     16  C   UNL     1      -4.143  -6.258   0.000  0.00  0.00    -0.001 C 
ATOM     17  C   UNL     1      -4.143  -4.758   0.000  0.00  0.00    +0.005 C 
ATOM     18  C   UNL     1      -2.844  -4.008   0.000  0.00  0.00    +0.010 C 
ATOM     19  C   UNL     1      -1.545  -4.758   0.000  0.00  0.00    -0.000 C 
ATOM     20  C   UNL     1      -1.388  -3.266   0.000  0.00  0.00    +0.014 C 
ATOM     21  C   UNL     1      -0.119  -4.295   0.000  0.00  0.00    +0.069 C 
ATOM     22  C   UNL     1       1.181  -3.545   0.000  0.00  0.00    +0.042 C 
ATOM     25  C   UNL     1       0.763  -5.508   0.000  0.00  0.00    +0.035 C 
ATOM     26  C   UNL     1      -0.119  -6.722   0.000  0.00  0.00    +0.007 C 
ATOM     27  C   UNL     1      -1.545  -6.258   0.000  0.00  0.00    +0.001 C 
ATOM     28  C   UNL     1      -5.442  -7.008   0.000  0.00  0.00    -0.022 C 
ATOM     29  C   UNL     1      -5.442  -5.508   0.000  0.00  0.00    +0.012 C 
ATOM     30  C   UNL     1      -6.741  -6.258   0.000  0.00  0.00    +0.045 C 
ATOM     31  C   UNL     1      -8.040  -7.008   0.000  0.00  0.00    -0.007 A 
ATOM     32  C   UNL     1      -9.339  -6.258   0.000  0.00  0.00    +0.118 A 
ENDROOT
BRANCH   2   3
ATOM      3  C   UNL     1     -11.937  -9.258   0.000  0.00  0.00    +0.019 A 
ATOM      4  C   UNL     1     -13.236  -8.508   0.000  0.00  0.00    +0.011 A 
ATOM      5  C   UNL     1     -14.536  -9.258   0.000  0.00  0.00    +0.001 A 
ATOM      6  C   UNL     1     -14.536 -10.758   0.000  0.00  0.00    +0.000 A 
ATOM      7  C   UNL     1     -13.236 -11.508   0.000  0.00  0.00    +0.001 A 
ATOM      8  C   UNL     1     -11.937 -10.758   0.000  0.00  0.00    +0.011 A 
ENDBRANCH   2   3
BRANCH  21  23
ATOM     23  O   UNL     1      -0.481  -2.839   0.000  0.00  0.00    -0.388 OA
ATOM     24  H   UNL     1       0.216  -2.165   0.000  0.00  0.00    +0.210 HD
ENDBRANCH  21  23
TORSDOF 2