REMARK  Name = 3905
REMARK  2 active torsions:
REMARK  status: ('A' for Active; 'I' for Inactive)
REMARK    1  A    between atoms: C_8  and  C_9
REMARK    2  A    between atoms: C_13  and  C_14
REMARK                            x       y       z     vdW  Elec       q    Type
REMARK                         _______ _______ _______ _____ _____    ______ ____
ROOT
ATOM      7  C   UNL     1      -7.245  -3.750   0.000  0.00  0.00    +0.090 A 
ATOM      8  C   UNL     1      -7.245  -5.250   0.000  0.00  0.00    +0.030 A 
ATOM      9  C   UNL     1      -5.946  -6.000   0.000  0.00  0.00    +0.004 A 
ATOM     10  C   UNL     1      -4.647  -5.250   0.000  0.00  0.00    +0.030 A 
ATOM     11  C   UNL     1      -4.647  -3.750   0.000  0.00  0.00    +0.090 A 
ATOM     18  N   UNL     1      -5.946  -3.000   0.000  0.00  0.00    -0.244 NA
ENDROOT
BRANCH   7   6
ATOM      1  N   UNL     1      -8.544  -1.500   0.000  0.00  0.00    -0.253 NA
ATOM      2  C   UNL     1      -9.843  -0.750   0.000  0.00  0.00    +0.111 A 
ATOM      3  C   UNL     1     -11.142  -1.500   0.000  0.00  0.00    +0.020 A 
ATOM      4  C   UNL     1     -11.142  -3.000   0.000  0.00  0.00    +0.004 A 
ATOM      5  C   UNL     1      -9.843  -3.750   0.000  0.00  0.00    +0.030 A 
ATOM      6  C   UNL     1      -8.544  -3.000   0.000  0.00  0.00    +0.089 A 
ENDBRANCH   7   6
BRANCH  11  12
ATOM     12  C   UNL     1      -3.348  -3.000   0.000  0.00  0.00    +0.089 A 
ATOM     13  C   UNL     1      -2.049  -3.750   0.000  0.00  0.00    +0.030 A 
ATOM     14  C   UNL     1      -0.750  -3.000   0.000  0.00  0.00    +0.004 A 
ATOM     15  C   UNL     1      -0.750  -1.500   0.000  0.00  0.00    +0.020 A 
ATOM     16  C   UNL     1      -2.049  -0.750   0.000  0.00  0.00    +0.111 A 
ATOM     17  N   UNL     1      -3.348  -1.500   0.000  0.00  0.00    -0.253 NA
ENDBRANCH  11  12
TORSDOF 2