REMARK  Name = 376265
REMARK  6 active torsions:
REMARK  status: ('A' for Active; 'I' for Inactive)
REMARK    1  A    between atoms: C_5  and  C_7
REMARK    2  A    between atoms: C_7  and  C_25
REMARK    3  A    between atoms: N_8  and  N_17
REMARK    4  A    between atoms: C_9  and  N_11
REMARK    5  A    between atoms: C_9  and  N_17
REMARK    6  A    between atoms: N_14  and  C_18
REMARK                            x       y       z     vdW  Elec       q    Type
REMARK                         _______ _______ _______ _____ _____    ______ ____
ROOT
ATOM      9  C   UNL     1      -6.368  -9.043   0.000  0.00  0.00    +0.153 C 
ATOM     23  S   UNL     1      -6.368 -10.543   0.000  0.00  0.00    -0.017 S 
ENDROOT
BRANCH   9  10
ATOM     10  N   UNL     1      -5.069  -8.293   0.000  0.00  0.00    -0.309 N 
ATOM     11  C   UNL     1      -5.069  -6.793   0.000  0.00  0.00    +0.122 C 
ATOM     12  C   UNL     1      -3.770  -6.043   0.000  0.00  0.00    +0.103 C 
ATOM     13  N   UNL     1      -2.471  -6.793   0.000  0.00  0.00    -0.296 NA
ATOM     21  C   UNL     1      -2.471  -8.293   0.000  0.00  0.00    +0.103 C 
ATOM     22  C   UNL     1      -3.770  -9.043   0.000  0.00  0.00    +0.122 C 
BRANCH  13  14
ATOM     14  C   UNL     1      -1.172  -6.043   0.000  0.00  0.00    +0.057 C 
ATOM     15  C   UNL     1      -1.284  -4.547   0.000  0.00  0.00    +0.019 C 
ATOM     16  C   UNL     1      -0.184  -3.526   0.000  0.00  0.00    +0.002 C 
ATOM     17  C   UNL     1       1.299  -3.750   0.000  0.00  0.00    +0.000 C 
ATOM     18  C   UNL     1       2.049  -5.049   0.000  0.00  0.00    +0.000 C 
ATOM     19  C   UNL     1       1.501  -6.445   0.000  0.00  0.00    +0.002 C 
ATOM     20  C   UNL     1       0.068  -6.888   0.000  0.00  0.00    +0.019 C 
ENDBRANCH  13  14
ENDBRANCH   9  10
BRANCH   9   7
ATOM      7  N   UNL     1      -7.667  -8.293   0.000  0.00  0.00    -0.218 N 
ATOM      8  H   UNL     1      -7.667  -7.308   0.000  0.00  0.00    +0.176 HD
BRANCH   7   6
ATOM      4  C   UNL     1     -10.265  -8.293   0.000  0.00  0.00    +0.081 C 
ATOM      5  C   UNL     1     -10.265  -6.793   0.000  0.00  0.00    +0.069 C 
ATOM      6  N   UNL     1      -8.966  -9.043   0.000  0.00  0.00    -0.184 NA
BRANCH   4   3
ATOM      1  C   UNL     1     -14.162  -9.043   0.000  0.00  0.00    +0.111 A 
ATOM      2  N   UNL     1     -12.863  -8.293   0.000  0.00  0.00    -0.254 NA
ATOM      3  C   UNL     1     -11.564  -9.043   0.000  0.00  0.00    +0.086 A 
ATOM     24  C   UNL     1     -11.564 -10.543   0.000  0.00  0.00    +0.029 A 
ATOM     25  C   UNL     1     -12.863 -11.293   0.000  0.00  0.00    +0.004 A 
ATOM     26  C   UNL     1     -14.162 -10.543   0.000  0.00  0.00    +0.020 A 
ENDBRANCH   4   3
ENDBRANCH   7   6
ENDBRANCH   9   7
TORSDOF 5