REMARK  Name = 4170
REMARK  1 active torsions:
REMARK  status: ('A' for Active; 'I' for Inactive)
REMARK    1  A    between atoms: C_3  and  C_13
REMARK                            x       y       z     vdW  Elec       q    Type
REMARK                         _______ _______ _______ _____ _____    ______ ____
ROOT
ATOM      1  C   UNL     1      -1.574  -3.275   0.000  0.00  0.00    +0.190 C 
ATOM      2  C   UNL     1      -2.873  -4.024   0.000  0.00  0.00    +0.033 A 
ATOM      3  C   UNL     1      -2.873  -5.524   0.000  0.00  0.00    +0.032 A 
ATOM      4  C   UNL     1      -4.172  -6.274   0.000  0.00  0.00    +0.012 A 
ATOM      5  C   UNL     1      -5.471  -5.524   0.000  0.00  0.00    +0.001 A 
ATOM      6  C   UNL     1      -5.471  -4.024   0.000  0.00  0.00    +0.001 A 
ATOM      7  C   UNL     1      -1.573  -6.274   0.000  0.00  0.00    +0.187 C 
ATOM      8  O   UNL     1      -1.573  -7.774   0.000  0.00  0.00    -0.287 OA
ATOM      9  C   UNL     1      -0.275  -5.524   0.000  0.00  0.00    +0.058 C 
ATOM     10  C   UNL     1      -4.172  -3.275   0.000  0.00  0.00    +0.012 A 
ATOM     11  C   UNL     1      -0.275  -4.024   0.000  0.00  0.00    +0.000 C 
ATOM     12  C   UNL     1       1.025  -3.275   0.000  0.00  0.00    +0.048 C 
ATOM     13  O   UNL     1      -1.574  -1.775   0.000  0.00  0.00    -0.287 OA
ENDROOT
TORSDOF 0