REMARK  Name = 3970
REMARK  0 active torsions:
REMARK  status: ('A' for Active; 'I' for Inactive)
REMARK                            x       y       z     vdW  Elec       q    Type
REMARK                         _______ _______ _______ _____ _____    ______ ____
ROOT
ATOM      1  C   UNL     1      -2.223  -2.150   0.000  0.00  0.00    +0.088 A 
ATOM      2  C   UNL     1      -0.924  -2.900   0.000  0.00  0.00    +0.254 A 
ATOM      3  N   UNL     1      -0.924  -4.399   0.000  0.00  0.00    -0.275 N 
ATOM      4  H   UNL     1       0.375  -5.149   0.000  0.00  0.00    +0.173 HD
ATOM      5  C   UNL     1      -2.223  -5.149   0.000  0.00  0.00    +0.327 A 
ATOM      6  O   UNL     1      -2.223  -6.649   0.000  0.00  0.00    -0.247 OA
ATOM      7  N   UNL     1      -3.522  -4.399   0.000  0.00  0.00    -0.314 N 
ATOM      8  H   UNL     1      -4.821  -5.149   0.000  0.00  0.00    +0.170 HD
ATOM      9  O   UNL     1       0.375  -2.150   0.000  0.00  0.00    -0.268 OA
ATOM     10  C   UNL     1      -3.522  -2.900   0.000  0.00  0.00    +0.092 A 
ENDROOT
TORSDOF 0