REMARK  Name = 403883
REMARK  5 active torsions:
REMARK  status: ('A' for Active; 'I' for Inactive)
REMARK    1  A    between atoms: C_2  and  C_15
REMARK    2  A    between atoms: C_2  and  C_16
REMARK    3  A    between atoms: C_7  and  C_17
REMARK    4  A    between atoms: C_9  and  O_13
REMARK    5  A    between atoms: C_9  and  C_14
REMARK                            x       y       z     vdW  Elec       q    Type
REMARK                         _______ _______ _______ _____ _____    ______ ____
ROOT
ATOM      1  C   UNL     1       0.787   0.717   0.000  0.00  0.00    +0.002 C 
ATOM      2  C   UNL     1       1.205  -0.724   0.000  0.00  0.00    -0.023 C 
ATOM      3  C   UNL     1       0.340  -1.949   0.000  0.00  0.00    +0.010 C 
ATOM      4  C   UNL     1      -1.157  -2.036   0.000  0.00  0.00    +0.035 C 
ATOM      5  C   UNL     1      -2.159  -0.920   0.000  0.00  0.00    +0.067 C 
ATOM      6  C   UNL     1      -3.546  -0.349   0.000  0.00  0.00    +0.041 C 
ATOM      9  C   UNL     1      -1.911   0.559   0.000  0.00  0.00    +0.027 C 
ATOM     10  C   UNL     1      -0.723  -0.982   0.000  0.00  0.00    +0.014 C 
ATOM     11  C   UNL     1       2.705  -0.771   0.000  0.00  0.00    -0.008 C 
ATOM     12  C   UNL     1       3.548  -2.012   0.000  0.00  0.00    +0.008 C 
ATOM     13  C   UNL     1       3.213   0.640   0.000  0.00  0.00    +0.004 C 
ATOM     14  C   UNL     1       2.028   1.560   0.000  0.00  0.00    +0.005 C 
ATOM     15  C   UNL     1      -0.600   1.288   0.000  0.00  0.00    -0.026 C 
ATOM     16  C   UNL     1       0.266   2.513   0.000  0.00  0.00    +0.011 C 
ATOM     17  C   UNL     1      -1.602   2.404   0.000  0.00  0.00    +0.011 C 
ENDROOT
BRANCH   5   7
ATOM      7  O   UNL     1      -3.025  -2.145   0.000  0.00  0.00    -0.389 OA
ATOM      8  H   UNL     1      -3.991  -2.057   0.000  0.00  0.00    +0.210 HD
ENDBRANCH   5   7
TORSDOF 1