REMARK  Name = 43321
REMARK  13 active torsions:
REMARK  status: ('A' for Active; 'I' for Inactive)
REMARK    1  A    between atoms: C_1  and  O_25
REMARK    2  A    between atoms: C_4  and  O_22
REMARK    3  A    between atoms: C_5  and  C_27
REMARK    4  A    between atoms: C_7  and  C_24
REMARK    5  A    between atoms: C_8  and  C_23
REMARK    6  A    between atoms: C_9  and  O_18
REMARK    7  A    between atoms: C_10  and  O_29
REMARK    8  A    between atoms: C_11  and  O_19
REMARK    9  A    between atoms: C_12  and  O_19
REMARK   10  A    between atoms: C_16  and  O_28
REMARK   11  A    between atoms: C_17  and  O_26
REMARK   12  A    between atoms: O_18  and  C_21
REMARK   13  A    between atoms: C_27  and  O_30
REMARK                            x       y       z     vdW  Elec       q    Type
REMARK                         _______ _______ _______ _____ _____    ______ ____
ROOT
ATOM      1  C   UNL     1     -10.025  -0.275   0.000  0.00  0.00    +0.121 A 
ATOM      4  C   UNL     1      -9.274  -1.574   0.000  0.00  0.00    +0.091 A 
ATOM      5  C   UNL     1     -10.025  -2.873   0.000  0.00  0.00    +0.128 A 
ATOM      6  C   UNL     1     -11.525  -2.873   0.000  0.00  0.00    +0.054 A 
ATOM      7  C   UNL     1     -12.275  -1.574   0.000  0.00  0.00    -0.018 A 
ATOM     36  C   UNL     1     -11.525  -0.275   0.000  0.00  0.00    +0.053 A 
ENDROOT
BRANCH   1   2
ATOM      2  O   UNL     1      -9.274   1.025   0.000  0.00  0.00    -0.507 OA
ATOM      3  H   UNL     1      -8.338   1.024   0.000  0.00  0.00    +0.292 HD
ENDBRANCH   1   2
BRANCH   7   8
ATOM      8  C   UNL     1     -13.775  -1.574   0.000  0.00  0.00    +0.009 C 
ATOM      9  C   UNL     1     -14.525  -0.275   0.000  0.00  0.00    +0.008 C 
BRANCH   9  10
ATOM     10  C   UNL     1     -16.025  -0.275   0.000  0.00  0.00    -0.021 A 
ATOM     11  C   UNL     1     -16.775  -1.574   0.000  0.00  0.00    +0.012 A 
ATOM     12  C   UNL     1     -18.275  -1.574   0.000  0.00  0.00    +0.050 A 
ATOM     13  C   UNL     1     -19.025  -0.275   0.000  0.00  0.00    +0.161 A 
ATOM     16  C   UNL     1     -18.275   1.025   0.000  0.00  0.00    +0.159 A 
ATOM     19  C   UNL     1     -16.775   1.025   0.000  0.00  0.00    +0.057 A 
BRANCH  13  14
ATOM     14  O   UNL     1     -20.525  -0.275   0.000  0.00  0.00    -0.491 OA
ATOM     15  C   UNL     1     -21.275   1.025   0.000  0.00  0.00    +0.277 C 
ENDBRANCH  13  14
BRANCH  16  17
ATOM     17  O   UNL     1     -19.025   2.324   0.000  0.00  0.00    -0.503 OA
ATOM     18  H   UNL     1     -18.556   3.135   0.000  0.00  0.00    +0.292 HD
ENDBRANCH  16  17
ENDBRANCH   9  10
ENDBRANCH   7   8
BRANCH   5  20
ATOM     20  O   UNL     1      -9.274  -4.172   0.000  0.00  0.00    -0.461 OA
BRANCH  20  21
ATOM     21  C   UNL     1      -7.774  -4.172   0.000  0.00  0.00    +0.339 C 
ATOM     22  C   UNL     1      -7.024  -5.471   0.000  0.00  0.00    +0.214 C 
ATOM     25  C   UNL     1      -5.524  -5.471   0.000  0.00  0.00    +0.180 C 
ATOM     28  C   UNL     1      -4.774  -4.172   0.000  0.00  0.00    +0.177 C 
ATOM     31  C   UNL     1      -5.524  -2.873   0.000  0.00  0.00    +0.179 C 
ATOM     35  O   UNL     1      -7.024  -2.873   0.000  0.00  0.00    -0.331 OA
BRANCH  22  23
ATOM     23  O   UNL     1      -7.774  -6.770   0.000  0.00  0.00    -0.383 OA
ATOM     24  H   UNL     1      -8.744  -6.770   0.000  0.00  0.00    +0.210 HD
ENDBRANCH  22  23
BRANCH  25  26
ATOM     26  O   UNL     1      -6.274  -4.172   0.000  0.00  0.00    -0.386 OA
ATOM     27  H   UNL     1      -5.790  -3.332   0.000  0.00  0.00    +0.210 HD
ENDBRANCH  25  26
BRANCH  28  29
ATOM     29  O   UNL     1      -3.275  -4.172   0.000  0.00  0.00    -0.386 OA
ATOM     30  H   UNL     1      -2.790  -5.012   0.000  0.00  0.00    +0.210 HD
ENDBRANCH  28  29
BRANCH  31  32
ATOM     32  C   UNL     1      -4.774  -1.574   0.000  0.00  0.00    +0.190 C 
BRANCH  32  33
ATOM     33  O   UNL     1      -3.275  -1.574   0.000  0.00  0.00    -0.392 OA
ATOM     34  H   UNL     1      -2.790  -2.414   0.000  0.00  0.00    +0.210 HD
ENDBRANCH  32  33
ENDBRANCH  31  32
ENDBRANCH  20  21
ENDBRANCH   5  20
TORSDOF 12