REMARK  Name = 407010
REMARK  5 active torsions:
REMARK  status: ('A' for Active; 'I' for Inactive)
REMARK    1  A    between atoms: C_3  and  O_21
REMARK    2  A    between atoms: C_4  and  C_8
REMARK    3  A    between atoms: C_6  and  O_20
REMARK    4  A    between atoms: C_10  and  O_18
REMARK    5  A    between atoms: C_11  and  O_19
REMARK                            x       y       z     vdW  Elec       q    Type
REMARK                         _______ _______ _______ _____ _____    ______ ____
ROOT
ATOM     10  C   UNL     1       3.522   5.899   0.000  0.00  0.00    +0.181 A 
ATOM     11  C   UNL     1       3.522   4.399   0.000  0.00  0.00    +0.208 A 
ATOM     14  C   UNL     1       2.223   3.650   0.000  0.00  0.00    +0.234 A 
ATOM     15  O   UNL     1       2.223   2.150   0.000  0.00  0.00    -0.283 OA
ATOM     16  C   UNL     1       0.924   4.399   0.000  0.00  0.00    +0.068 A 
ATOM     17  C   UNL     1      -0.375   3.650   0.000  0.00  0.00    +0.019 A 
ATOM     18  C   UNL     1      -1.674   4.399   0.000  0.00  0.00    +0.046 A 
ATOM     19  C   UNL     1      -1.674   5.899   0.000  0.00  0.00    +0.120 A 
ATOM     22  C   UNL     1      -0.375   6.649   0.000  0.00  0.00    +0.092 A 
ATOM     23  C   UNL     1       0.924   5.899   0.000  0.00  0.00    +0.143 A 
ATOM     24  O   UNL     1       2.223   6.649   0.000  0.00  0.00    -0.451 OA
ENDROOT
BRANCH  10   9
ATOM      1  C   UNL     1       6.120   8.899   0.000  0.00  0.00    +0.050 A 
ATOM      2  C   UNL     1       7.419   8.149   0.000  0.00  0.00    +0.158 A 
ATOM      5  C   UNL     1       7.419   6.649   0.000  0.00  0.00    +0.159 A 
ATOM      8  C   UNL     1       6.120   5.899   0.000  0.00  0.00    +0.060 A 
ATOM      9  C   UNL     1       4.821   6.649   0.000  0.00  0.00    +0.025 A 
ATOM     25  C   UNL     1       4.821   8.149   0.000  0.00  0.00    +0.015 A 
BRANCH   2   3
ATOM      3  O   UNL     1       8.718   8.899   0.000  0.00  0.00    -0.503 OA
ATOM      4  H   UNL     1       9.530   8.431   0.000  0.00  0.00    +0.292 HD
ENDBRANCH   2   3
BRANCH   5   6
ATOM      6  O   UNL     1       8.718   5.899   0.000  0.00  0.00    -0.503 OA
ATOM      7  H   UNL     1       8.718   4.963   0.000  0.00  0.00    +0.292 HD
ENDBRANCH   5   6
ENDBRANCH  10   9
BRANCH  11  12
ATOM     12  O   UNL     1       4.821   3.650   0.000  0.00  0.00    -0.501 OA
ATOM     13  H   UNL     1       4.821   2.713   0.000  0.00  0.00    +0.292 HD
ENDBRANCH  11  12
BRANCH  19  20
ATOM     20  O   UNL     1      -2.973   6.649   0.000  0.00  0.00    -0.507 OA
ATOM     21  H   UNL     1      -2.973   7.586   0.000  0.00  0.00    +0.292 HD
ENDBRANCH  19  20
TORSDOF 5