REMARK  Name = 406021
REMARK  5 active torsions:
REMARK  status: ('A' for Active; 'I' for Inactive)
REMARK    1  A    between atoms: N_7  and  C1*_13
REMARK    2  A    between atoms: C2*_14  and  O2*_20
REMARK    3  A    between atoms: C3*_15  and  O3*_19
REMARK    4  A    between atoms: C4*_16  and  C5*_18
REMARK    5  A    between atoms: O5*_17  and  C5*_18
REMARK                            x       y       z     vdW  Elec       q    Type
REMARK                         _______ _______ _______ _____ _____    ______ ____
ROOT
ATOM      6  C1* UNL     1      -4.768   3.394   0.000  0.00  0.00    +0.253 C 
ATOM      7  C2* UNL     1      -3.341   2.930   0.000  0.00  0.00    +0.195 C 
ATOM     10  C3* UNL     1      -3.341   1.430   0.000  0.00  0.00    +0.178 C 
ATOM     13  C4* UNL     1      -4.768   0.967   0.000  0.00  0.00    +0.177 C 
ATOM     17  O4* UNL     1      -5.649   2.180   0.000  0.00  0.00    -0.346 OA
ENDROOT
BRANCH   6   5
ATOM      1  N   UNL     1      -9.256   6.784   0.000  0.00  0.00    -0.228 NA
ATOM      2  C   UNL     1      -7.957   7.534   0.000  0.00  0.00    +0.138 A 
ATOM      3  C   UNL     1      -6.658   6.784   0.000  0.00  0.00    +0.139 A 
ATOM      4  C   UNL     1      -6.658   5.284   0.000  0.00  0.00    +0.144 A 
ATOM      5  N   UNL     1      -5.231   4.820   0.000  0.00  0.00    -0.287 N 
ATOM     18  C   UNL     1      -4.350   6.034   0.000  0.00  0.00    +0.203 A 
ATOM     19  N   UNL     1      -7.957   4.534   0.000  0.00  0.00    -0.330 N 
ATOM     20  H   UNL     1      -7.957   3.034   0.000  0.00  0.00    +0.168 HD
ATOM     21  N   UNL     1      -5.231   7.247   0.000  0.00  0.00    -0.231 NA
ATOM     22  S   UNL     1      -7.957   9.034   0.000  0.00  0.00    -0.028 S 
ATOM     23  C   UNL     1      -9.256   5.284   0.000  0.00  0.00    +0.199 A 
ENDBRANCH   6   5
BRANCH   7   8
ATOM      8  O2* UNL     1      -4.555   2.048   0.000  0.00  0.00    -0.385 OA
ATOM      9  H2* UNL     1      -5.441   2.443   0.000  0.00  0.00    +0.210 HD
ENDBRANCH   7   8
BRANCH  10  11
ATOM     11  O3* UNL     1      -2.128   0.548   0.000  0.00  0.00    -0.386 OA
ATOM     12  H3* UNL     1      -2.229  -0.416   0.000  0.00  0.00    +0.210 HD
ENDBRANCH  10  11
BRANCH  13  14
ATOM     14  C5* UNL     1      -5.231  -0.460   0.000  0.00  0.00    +0.190 C 
BRANCH  14  15
ATOM     15  O5* UNL     1      -4.228  -1.575   0.000  0.00  0.00    -0.392 OA
ATOM     16  H5* UNL     1      -4.527  -2.497   0.000  0.00  0.00    +0.210 HD
ENDBRANCH  14  15
ENDBRANCH  13  14
TORSDOF 5