REMARK  Name = 374898
REMARK  8 active torsions:
REMARK  status: ('A' for Active; 'I' for Inactive)
REMARK    1  A    between atoms: C_8  and  N_9
REMARK    2  A    between atoms: C_10  and  C_14
REMARK    3  A    between atoms: C_11  and  O_27
REMARK    4  A    between atoms: N_12  and  C_15
REMARK    5  A    between atoms: C_17  and  O_29
REMARK    6  A    between atoms: C_18  and  N_28
REMARK    7  A    between atoms: C_21  and  C_30
REMARK    8  A    between atoms: C_26  and  C_31
REMARK                            x       y       z     vdW  Elec       q    Type
REMARK                         _______ _______ _______ _____ _____    ______ ____
ROOT
ATOM      1  C   UNL     1       1.500   9.843   0.000  0.00  0.00    +0.001 A 
ATOM      2  C   UNL     1       0.750   8.544   0.000  0.00  0.00    +0.001 A 
ATOM      3  C   UNL     1       1.500   7.245   0.000  0.00  0.00    +0.011 A 
ATOM      4  C   UNL     1       3.000   7.245   0.000  0.00  0.00    +0.013 A 
ATOM      5  C   UNL     1       3.750   5.946   0.000  0.00  0.00    +0.136 A 
ATOM     16  C   UNL     1       5.250   5.946   0.000  0.00  0.00    +0.157 A 
ATOM     19  C   UNL     1       6.000   7.245   0.000  0.00  0.00    +0.081 A 
ATOM     32  C   UNL     1       5.250   8.544   0.000  0.00  0.00    +0.025 A 
ATOM     33  C   UNL     1       3.750   8.544   0.000  0.00  0.00    -0.015 A 
ATOM     34  C   UNL     1       3.000   9.843   0.000  0.00  0.00    +0.008 A 
ENDROOT
BRANCH  19  20
ATOM     20  C   UNL     1       7.500   7.245   0.000  0.00  0.00    +0.252 C 
ATOM     21  N   UNL     1       8.250   5.946   0.000  0.00  0.00    -0.281 N 
ATOM     22  H   UNL     1       7.758   5.094   0.000  0.00  0.00    +0.155 HD
ATOM     31  O   UNL     1       8.250   8.544   0.000  0.00  0.00    -0.270 OA
BRANCH  21  23
ATOM     23  C   UNL     1       9.750   5.946   0.000  0.00  0.00    +0.037 A 
ATOM     24  C   UNL     1      10.500   4.647   0.000  0.00  0.00    +0.024 A 
ATOM     25  C   UNL     1      12.000   4.647   0.000  0.00  0.00    +0.005 A 
ATOM     26  C   UNL     1      12.750   5.946   0.000  0.00  0.00    -0.050 A 
ATOM     27  C   UNL     1      14.250   5.946   0.000  0.00  0.00    +0.044 C 
ATOM     28  C   UNL     1      12.000   7.245   0.000  0.00  0.00    +0.008 A 
ATOM     29  C   UNL     1      10.500   7.245   0.000  0.00  0.00    -0.029 A 
ATOM     30  C   UNL     1       9.750   8.544   0.000  0.00  0.00    +0.045 C 
ENDBRANCH  21  23
ENDBRANCH  19  20
BRANCH   5   6
ATOM      6  N   UNL     1       2.513   3.803   0.000  0.00  0.00    -0.145 NA
ATOM      7  N   UNL     1       3.263   2.504   0.000  0.00  0.00    -0.145 NA
BRANCH   7   8
ATOM      8  C   UNL     1       4.763   2.504   0.000  0.00  0.00    +0.127 A 
ATOM      9  C   UNL     1       5.513   1.205   0.000  0.00  0.00    +0.144 A 
ATOM     12  C   UNL     1       7.013   1.205   0.000  0.00  0.00    +0.047 A 
ATOM     13  C   UNL     1       7.763   2.504   0.000  0.00  0.00    +0.004 A 
ATOM     14  C   UNL     1       7.013   3.803   0.000  0.00  0.00    +0.002 A 
ATOM     15  C   UNL     1       5.513   3.803   0.000  0.00  0.00    +0.033 A 
BRANCH   9  10
ATOM     10  O   UNL     1       4.763  -0.094   0.000  0.00  0.00    -0.505 OA
ATOM     11  H   UNL     1       3.826  -0.094   0.000  0.00  0.00    +0.292 HD
ENDBRANCH   9  10
ENDBRANCH   7   8
ENDBRANCH   5   6
BRANCH  16  17
ATOM     17  O   UNL     1       6.000   4.647   0.000  0.00  0.00    -0.504 OA
ATOM     18  H   UNL     1       5.531   3.836   0.000  0.00  0.00    +0.292 HD
ENDBRANCH  16  17
TORSDOF 6