REMARK  Name = 4280
REMARK  2 active torsions:
REMARK  status: ('A' for Active; 'I' for Inactive)
REMARK    1  A    between atoms: C_3  and  C_16
REMARK    2  A    between atoms: C_14  and  C_15
REMARK                            x       y       z     vdW  Elec       q    Type
REMARK                         _______ _______ _______ _____ _____    ______ ____
ROOT
ATOM      1  N   UNL     1       0.275   5.524   0.000  0.00  0.00    -0.250 NA
ATOM      2  C   UNL     1       1.573   4.774   0.000  0.00  0.00    +0.097 A 
ATOM      3  C   UNL     1       1.573   3.275   0.000  0.00  0.00    +0.003 A 
ATOM      4  C   UNL     1       0.275   2.525   0.000  0.00  0.00    +0.012 A 
ATOM      5  C   UNL     1      -1.025   3.275   0.000  0.00  0.00    +0.023 A 
ATOM      6  C   UNL     1       2.873   2.525   0.000  0.00  0.00    +0.011 A 
ATOM      7  C   UNL     1       4.172   3.275   0.000  0.00  0.00    +0.011 A 
ATOM      8  C   UNL     1       4.172   4.774   0.000  0.00  0.00    +0.003 A 
ATOM      9  C   UNL     1       5.471   5.524   0.000  0.00  0.00    +0.012 A 
ATOM     10  C   UNL     1       5.471   7.024   0.000  0.00  0.00    +0.023 A 
ATOM     11  C   UNL     1       4.172   7.774   0.000  0.00  0.00    +0.039 A 
ATOM     12  C   UNL     1       4.172   9.274   0.000  0.00  0.00    +0.065 C 
ATOM     13  N   UNL     1       2.873   7.024   0.000  0.00  0.00    -0.250 NA
ATOM     14  C   UNL     1       2.873   5.524   0.000  0.00  0.00    +0.097 A 
ATOM     15  C   UNL     1      -1.025   4.774   0.000  0.00  0.00    +0.039 A 
ATOM     16  C   UNL     1      -2.324   5.524   0.000  0.00  0.00    +0.065 C 
ENDROOT
TORSDOF 0