REMARK  Name = 369318
REMARK  5 active torsions:
REMARK  status: ('A' for Active; 'I' for Inactive)
REMARK    1  A    between atoms: C_1  and  C_9
REMARK    2  A    between atoms: C_5  and  C_10
REMARK    3  A    between atoms: C_6  and  N_11
REMARK    4  A    between atoms: C_8  and  N_11
REMARK    5  A    between atoms: C_8  and  C_12
REMARK                            x       y       z     vdW  Elec       q    Type
REMARK                         _______ _______ _______ _____ _____    ______ ____
ROOT
ATOM      1  C   UNL     1       2.250   2.049   0.000  0.00  0.00    -0.050 A 
ATOM      2  C   UNL     1       0.750   2.049   0.000  0.00  0.00    +0.044 C 
ATOM      3  C   UNL     1       3.000   0.750   0.000  0.00  0.00    +0.005 A 
ATOM      4  C   UNL     1       4.500   0.750   0.000  0.00  0.00    +0.024 A 
ATOM      5  C   UNL     1       5.250   2.049   0.000  0.00  0.00    +0.035 A 
ATOM     12  C   UNL     1       4.500   3.348   0.000  0.00  0.00    -0.029 A 
ATOM     13  C   UNL     1       5.250   4.647   0.000  0.00  0.00    +0.045 C 
ATOM     14  C   UNL     1       3.000   3.348   0.000  0.00  0.00    +0.008 A 
ENDROOT
BRANCH   5   6
ATOM      6  N   UNL     1       6.750   2.049   0.000  0.00  0.00    -0.300 N 
ATOM      7  H   UNL     1       7.242   1.196   0.000  0.00  0.00    +0.153 HD
BRANCH   6   8
ATOM      8  C   UNL     1       7.500   3.348   0.000  0.00  0.00    +0.155 C 
ATOM     11  S   UNL     1       6.750   4.647   0.000  0.00  0.00    -0.024 S 
BRANCH   8   9
ATOM      9  C   UNL     1       9.000   3.348   0.000  0.00  0.00    +0.123 C 
ATOM     10  N   UNL     1      10.500   3.348   0.000  0.00  0.00    -0.189 NA
ENDBRANCH   8   9
ENDBRANCH   6   8
ENDBRANCH   5   6
TORSDOF 3