REMARK  Name = NSC 10105
REMARK  8 active torsions:
REMARK  status: ('A' for Active; 'I' for Inactive)
REMARK    1  A    between atoms: C_5  and  O_6
REMARK    2  A    between atoms: O_6  and  C_7
REMARK    3  A    between atoms: C_8  and  O_9
REMARK    4  A    between atoms: O_9  and  C_10
REMARK    5  A    between atoms: C_19  and  O_20
REMARK    6  A    between atoms: O_20  and  C_21
REMARK    7  A    between atoms: C_22  and  O_23
REMARK    8  A    between atoms: O_23  and  C_24
REMARK                            x       y       z     vdW  Elec       q    Type
REMARK                         _______ _______ _______ _____ _____    ______ ____
ROOT
ATOM      1  N   UNL     1       5.471   5.524   0.000  0.00  0.00    -0.291 NA
ATOM      2  C   UNL     1       4.172   4.774   0.000  0.00  0.00    +0.120 C 
ATOM      3  C   UNL     1       2.873   5.524   0.000  0.00  0.00    -0.026 A 
ATOM      4  C   UNL     1       1.574   4.774   0.000  0.00  0.00    +0.054 A 
ATOM      5  C   UNL     1       0.275   5.524   0.000  0.00  0.00    +0.162 A 
ATOM      8  C   UNL     1       0.275   7.024   0.000  0.00  0.00    +0.162 A 
ATOM     11  C   UNL     1       1.574   7.774   0.000  0.00  0.00    +0.053 A 
ATOM     12  C   UNL     1       2.873   7.024   0.000  0.00  0.00    -0.037 A 
ATOM     13  C   UNL     1       4.172   7.774   0.000  0.00  0.00    +0.059 C 
ATOM     14  C   UNL     1       6.770   4.774   0.000  0.00  0.00    +0.090 C 
ATOM     15  C   UNL     1       8.069   5.524   0.000  0.00  0.00    +0.051 C 
ATOM     16  C   UNL     1       8.069   7.024   0.000  0.00  0.00    -0.038 A 
ATOM     17  C   UNL     1       6.770   7.774   0.000  0.00  0.00    -0.023 A 
ATOM     18  C   UNL     1       6.770   9.274   0.000  0.00  0.00    +0.054 A 
ATOM     19  C   UNL     1       8.069  10.025   0.000  0.00  0.00    +0.162 A 
ATOM     22  C   UNL     1       9.368   9.274   0.000  0.00  0.00    +0.162 A 
ATOM     25  C   UNL     1       9.368   7.774   0.000  0.00  0.00    +0.053 A 
ATOM     26  C   UNL     1       5.471   7.024   0.000  0.00  0.00    +0.092 C 
ENDROOT
BRANCH   5   6
ATOM      6  O   UNL     1      -1.025   4.774   0.000  0.00  0.00    -0.491 OA
ATOM      7  C   UNL     1      -2.324   5.524   0.000  0.00  0.00    +0.277 C 
ENDBRANCH   5   6
BRANCH   8   9
ATOM      9  O   UNL     1      -1.025   7.774   0.000  0.00  0.00    -0.491 OA
ATOM     10  C   UNL     1      -2.324   7.024   0.000  0.00  0.00    +0.277 C 
ENDBRANCH   8   9
BRANCH  19  20
ATOM     20  O   UNL     1       8.069  11.525   0.000  0.00  0.00    -0.491 OA
ATOM     21  C   UNL     1       6.770  12.275   0.000  0.00  0.00    +0.277 C 
ENDBRANCH  19  20
BRANCH  22  23
ATOM     23  O   UNL     1      10.667  10.025   0.000  0.00  0.00    -0.491 OA
ATOM     24  C   UNL     1      11.966   9.274   0.000  0.00  0.00    +0.277 C 
ENDBRANCH  22  23
TORSDOF 4