REMARK  Name = NSC 106969
REMARK  10 active torsions:
REMARK  status: ('A' for Active; 'I' for Inactive)
REMARK    1  A    between atoms: C_4  and  O_5
REMARK    2  A    between atoms: C_6  and  O_7
REMARK    3  A    between atoms: O_7  and  C_8
REMARK    4  A    between atoms: C_9  and  O_10
REMARK    5  A    between atoms: C_13  and  O_14
REMARK    6  A    between atoms: O_14  and  C_15
REMARK    7  A    between atoms: C_17  and  C_18
REMARK    8  A    between atoms: C_21  and  O_22
REMARK    9  A    between atoms: O_22  and  C_23
REMARK   10  A    between atoms: C_24  and  O_25
REMARK                            x       y       z     vdW  Elec       q    Type
REMARK                         _______ _______ _______ _____ _____    ______ ____
ROOT
ATOM      1  O   UNL     1      -5.471  -7.024   0.000  0.00  0.00    -0.451 OA
ATOM      2  C   UNL     1      -6.770  -7.774   0.000  0.00  0.00    +0.147 A 
ATOM      3  C   UNL     1      -8.069  -7.024   0.000  0.00  0.00    +0.096 A 
ATOM      4  C   UNL     1      -9.368  -7.774   0.000  0.00  0.00    +0.166 A 
ATOM      7  C   UNL     1      -9.368  -9.274   0.000  0.00  0.00    +0.204 A 
ATOM     10  C   UNL     1      -8.069 -10.025   0.000  0.00  0.00    +0.177 A 
ATOM     13  C   UNL     1      -6.770  -9.274   0.000  0.00  0.00    +0.113 A 
ATOM     14  C   UNL     1      -5.471 -10.025   0.000  0.00  0.00    +0.238 A 
ATOM     15  C   UNL     1      -4.172  -9.274   0.000  0.00  0.00    +0.211 A 
ATOM     18  O   UNL     1      -5.471 -11.525   0.000  0.00  0.00    -0.283 OA
ATOM     19  C   UNL     1      -4.172  -7.774   0.000  0.00  0.00    +0.181 A 
ENDROOT
BRANCH  19  20
ATOM     20  C   UNL     1      -2.873  -7.024   0.000  0.00  0.00    +0.025 A 
ATOM     21  C   UNL     1      -1.574  -7.774   0.000  0.00  0.00    +0.015 A 
ATOM     22  C   UNL     1      -0.275  -7.024   0.000  0.00  0.00    +0.050 A 
ATOM     23  C   UNL     1      -0.275  -5.524   0.000  0.00  0.00    +0.161 A 
ATOM     26  C   UNL     1      -1.574  -4.774   0.000  0.00  0.00    +0.159 A 
ATOM     29  C   UNL     1      -2.873  -5.524   0.000  0.00  0.00    +0.060 A 
BRANCH  23  24
ATOM     24  O   UNL     1       1.025  -4.774   0.000  0.00  0.00    -0.491 OA
ATOM     25  C   UNL     1       1.025  -3.275   0.000  0.00  0.00    +0.277 C 
ENDBRANCH  23  24
BRANCH  26  27
ATOM     27  O   UNL     1      -1.574  -3.275   0.000  0.00  0.00    -0.503 OA
ATOM     28  H   UNL     1      -0.762  -2.806   0.000  0.00  0.00    +0.292 HD
ENDBRANCH  26  27
ENDBRANCH  19  20
BRANCH   4   5
ATOM      5  O   UNL     1     -10.667  -7.024   0.000  0.00  0.00    -0.503 OA
ATOM      6  H   UNL     1     -10.667  -6.088   0.000  0.00  0.00    +0.292 HD
ENDBRANCH   4   5
BRANCH   7   8
ATOM      8  O   UNL     1     -10.667 -10.025   0.000  0.00  0.00    -0.488 OA
ATOM      9  C   UNL     1     -11.966  -9.274   0.000  0.00  0.00    +0.277 C 
ENDBRANCH   7   8
BRANCH  10  11
ATOM     11  O   UNL     1      -8.069 -11.525   0.000  0.00  0.00    -0.503 OA
ATOM     12  H   UNL     1      -8.880 -11.993   0.000  0.00  0.00    +0.292 HD
ENDBRANCH  10  11
BRANCH  15  16
ATOM     16  O   UNL     1      -2.873 -10.025   0.000  0.00  0.00    -0.488 OA
ATOM     17  C   UNL     1      -2.873 -11.525   0.000  0.00  0.00    +0.277 C 
ENDBRANCH  15  16
TORSDOF 7