REMARK  Name = NSC 112907
REMARK  6 active torsions:
REMARK  status: ('A' for Active; 'I' for Inactive)
REMARK    1  A    between atoms: C4_4  and  O4_5
REMARK    2  A    between atoms: N1_8  and  C1*_9
REMARK    3  A    between atoms: C2*_10  and  O2*_11
REMARK    4  A    between atoms: C3*_12  and  O3*_13
REMARK    5  A    between atoms: C4*_14  and  C5*_15
REMARK    6  A    between atoms: C5*_15  and  O5*_16
REMARK                            x       y       z     vdW  Elec       q    Type
REMARK                         _______ _______ _______ _____ _____    ______ ____
ROOT
ATOM     11  C1*   U A   1       3.348  -6.750   0.000  0.00  0.00    +0.241 C 
ATOM     12  C2*   U A   1       4.562  -7.632   0.000  0.00  0.00    +0.193 C 
ATOM     15  C3*   U A   1       4.098  -9.058   0.000  0.00  0.00    +0.178 C 
ATOM     18  C4*   U A   1       2.598  -9.058   0.000  0.00  0.00    +0.177 C 
ATOM     22  O4*   U A   1       2.135  -7.632   0.000  0.00  0.00    -0.348 OA
ENDROOT
BRANCH  11  10
ATOM      1  O2    U A   1       0.750  -5.250   0.000  0.00  0.00    -0.253 OA
ATOM      2  C2    U A   1       2.049  -4.500   0.000  0.00  0.00    +0.306 C 
ATOM      3  N3    U A   1       2.049  -3.000   0.000  0.00  0.00    -0.274 N 
ATOM      4  H3    U A   1       1.196  -2.508   0.000  0.00  0.00    +0.153 HD
ATOM      5  C4    U A   1       3.348  -2.250   0.000  0.00  0.00    +0.205 C 
ATOM      8  C5    U A   1       4.647  -3.000   0.000  0.00  0.00    +0.070 C 
ATOM      9  C6    U A   1       4.647  -4.500   0.000  0.00  0.00    +0.116 C 
ATOM     10  N1    U A   1       3.348  -5.250   0.000  0.00  0.00    -0.257 N 
BRANCH   5   6
ATOM      6  O4    U A   1       3.348  -0.750   0.000  0.00  0.00    -0.374 OA
ATOM      7  H4    U A   1       4.188  -0.265   0.000  0.00  0.00    +0.212 HD
ENDBRANCH   5   6
ENDBRANCH  11  10
BRANCH  12  13
ATOM     13  O2*   U A   1       5.988  -7.168   0.000  0.00  0.00    -0.385 OA
ATOM     14  H2*   U A   1       6.709  -7.817   0.000  0.00  0.00    +0.210 HD
ENDBRANCH  12  13
BRANCH  15  16
ATOM     16  O3*   U A   1       4.980 -10.272   0.000  0.00  0.00    -0.386 OA
ATOM     17  H3*   U A   1       4.585 -11.158   0.000  0.00  0.00    +0.210 HD
ENDBRANCH  15  16
BRANCH  18  19
ATOM     19  C5*   U A   1       1.716 -10.272   0.000  0.00  0.00    +0.190 C 
BRANCH  19  20
ATOM     20  O5*   U A   1       2.326 -11.642   0.000  0.00  0.00    -0.392 OA
ATOM     21  H5*   U A   1       1.756 -12.427   0.000  0.00  0.00    +0.210 HD
ENDBRANCH  19  20
ENDBRANCH  18  19
TORSDOF 6