REMARK  Name = NSC 118343
REMARK  4 active torsions:
REMARK  status: ('A' for Active; 'I' for Inactive)
REMARK    1  A    between atoms: C_2  and  C_3
REMARK    2  A    between atoms: C_4  and  C_5
REMARK    3  A    between atoms: C_12  and  O_13
REMARK    4  A    between atoms: C_14  and  C_15
REMARK                            x       y       z     vdW  Elec       q    Type
REMARK                         _______ _______ _______ _____ _____    ______ ____
ROOT
ATOM      4  C   UNL     1      -4.172  -7.774   0.000  0.00  0.00    +0.135 A 
ATOM      5  C   UNL     1      -4.172  -6.274   0.000  0.00  0.00    +0.093 A 
ATOM      6  C   UNL     1      -2.873  -5.524   0.000  0.00  0.00    +0.142 A 
ATOM      7  C   UNL     1      -1.574  -6.274   0.000  0.00  0.00    +0.146 A 
ATOM      8  C   UNL     1      -1.574  -7.774   0.000  0.00  0.00    +0.352 A 
ATOM      9  O   UNL     1      -0.275  -8.524   0.000  0.00  0.00    -0.244 OA
ATOM     10  C   UNL     1      -0.275  -5.524   0.000  0.00  0.00    +0.205 C 
ATOM     11  C   UNL     1      -0.275  -4.024   0.000  0.00  0.00    +0.226 C 
ATOM     14  C   UNL     1      -1.574  -3.275   0.000  0.00  0.00    +0.206 C 
ATOM     15  C   UNL     1      -1.574  -1.775   0.000  0.00  0.00    +0.055 C 
ATOM     16  O   UNL     1       1.025  -6.274   0.000  0.00  0.00    -0.289 OA
ATOM     17  O   UNL     1      -2.873  -4.024   0.000  0.00  0.00    -0.485 OA
ATOM     18  O   UNL     1      -2.873  -8.524   0.000  0.00  0.00    -0.422 OA
ENDROOT
BRANCH   4   3
ATOM      1  C   UNL     1      -6.770  -7.774   0.000  0.00  0.00    -0.027 C 
ATOM      2  C   UNL     1      -8.069  -8.524   0.000  0.00  0.00    +0.035 C 
ATOM      3  C   UNL     1      -5.471  -8.524   0.000  0.00  0.00    +0.042 C 
ENDBRANCH   4   3
BRANCH  11  12
ATOM     12  O   UNL     1       1.025  -3.275   0.000  0.00  0.00    -0.380 OA
ATOM     13  H   UNL     1       1.865  -3.759   0.000  0.00  0.00    +0.211 HD
ENDBRANCH  11  12
TORSDOF 2