REMARK  Name = NSC 114344
REMARK  8 active torsions:
REMARK  status: ('A' for Active; 'I' for Inactive)
REMARK    1  A    between atoms: C_5  and  C_6
REMARK    2  A    between atoms: C_7  and  C_8
REMARK    3  A    between atoms: C_8  and  C_9
REMARK    4  A    between atoms: C_8  and  C_11
REMARK    5  A    between atoms: C_9  and  C_10
REMARK    6  A    between atoms: C_16  and  O_17
REMARK    7  A    between atoms: C_18  and  C_19
REMARK    8  A    between atoms: C_19  and  O_20
REMARK                            x       y       z     vdW  Elec       q    Type
REMARK                         _______ _______ _______ _____ _____    ______ ____
ROOT
ATOM      1  O   UNL     1     -11.517  -0.449   0.000  0.00  0.00    -0.287 OA
ATOM      2  C   UNL     1     -10.218   0.301   0.000  0.00  0.00    +0.197 A 
ATOM      3  C   UNL     1      -8.919  -0.449   0.000  0.00  0.00    +0.061 A 
ATOM      4  C   UNL     1      -7.620   0.301   0.000  0.00  0.00    -0.002 A 
ATOM      5  C   UNL     1      -6.321  -0.449   0.000  0.00  0.00    -0.004 A 
ATOM      6  C   UNL     1      -6.321  -1.949   0.000  0.00  0.00    +0.048 C 
ATOM      7  C   UNL     1      -5.022   0.301   0.000  0.00  0.00    +0.111 A 
ATOM     12  O   UNL     1      -5.022   1.801   0.000  0.00  0.00    -0.467 OA
ATOM     13  C   UNL     1      -6.321   2.551   0.000  0.00  0.00    +0.207 A 
ATOM     14  C   UNL     1      -7.620   1.801   0.000  0.00  0.00    +0.060 A 
ATOM     15  C   UNL     1      -8.919   2.551   0.000  0.00  0.00    +0.145 A 
ATOM     18  C   UNL     1     -10.218   1.801   0.000  0.00  0.00    +0.147 A 
ENDROOT
BRANCH   7   8
ATOM      8  C   UNL     1      -3.723  -0.449   0.000  0.00  0.00    +0.052 C 
ATOM     11  C   UNL     1      -4.473  -1.748   0.000  0.00  0.00    +0.015 C 
BRANCH   8   9
ATOM      9  C   UNL     1      -2.424  -1.199   0.000  0.00  0.00    +0.007 C 
ATOM     10  C   UNL     1      -1.125  -0.449   0.000  0.00  0.00    +0.004 C 
ENDBRANCH   8   9
ENDBRANCH   7   8
BRANCH  15  16
ATOM     16  O   UNL     1      -8.919   4.051   0.000  0.00  0.00    -0.505 OA
ATOM     17  H   UNL     1      -8.108   4.520   0.000  0.00  0.00    +0.292 HD
ENDBRANCH  15  16
BRANCH  18  19
ATOM     19  C   UNL     1     -11.517   2.551   0.000  0.00  0.00    +0.344 C 
ATOM     22  O   UNL     1     -12.816   1.801   0.000  0.00  0.00    -0.245 OA
BRANCH  19  20
ATOM     20  O   UNL     1     -11.517   4.051   0.000  0.00  0.00    -0.477 OA
ATOM     21  H   UNL     1     -10.706   4.520   0.000  0.00  0.00    +0.295 HD
ENDBRANCH  19  20
ENDBRANCH  18  19
TORSDOF 5