REMARK  Name = NSC 122819
REMARK  11 active torsions:
REMARK  status: ('A' for Active; 'I' for Inactive)
REMARK    1  A    between atoms: C_5  and  C_6
REMARK    2  A    between atoms: C_10  and  O_11
REMARK    3  A    between atoms: C_12  and  O_13
REMARK    4  A    between atoms: C_14  and  O_15
REMARK    5  A    between atoms: O_15  and  C_16
REMARK    6  A    between atoms: C_26  and  C_33
REMARK    7  A    between atoms: C_35  and  O_36
REMARK    8  A    between atoms: O_36  and  C_37
REMARK    9  A    between atoms: C_38  and  O_39
REMARK   10  A    between atoms: C_40  and  O_41
REMARK   11  A    between atoms: O_41  and  C_42
REMARK                            x       y       z     vdW  Elec       q    Type
REMARK                         _______ _______ _______ _____ _____    ______ ____
ROOT
ATOM     17  C   UNL     1      -6.702   7.989   0.000  0.00  0.00    +0.159 C 
ATOM     18  C   UNL     1      -7.312   9.360   0.000  0.00  0.00    -0.011 A 
ATOM     19  C   UNL     1      -8.803   9.517   0.000  0.00  0.00    +0.056 A 
ATOM     20  C   UNL     1      -9.414  10.887   0.000  0.00  0.00    +0.167 A 
ATOM     21  C   UNL     1      -8.532  12.100   0.000  0.00  0.00    +0.167 A 
ATOM     22  C   UNL     1      -7.040  11.944   0.000  0.00  0.00    +0.054 A 
ATOM     23  O   UNL     1      -9.414  13.314   0.000  0.00  0.00    -0.453 OA
ATOM     24  C   UNL     1     -10.840  12.850   0.000  0.00  0.00    +0.466 C 
ATOM     25  O   UNL     1     -10.840  11.350   0.000  0.00  0.00    -0.453 OA
ATOM     26  C   UNL     1      -6.430  10.573   0.000  0.00  0.00    -0.030 A 
ATOM     27  C   UNL     1      -4.938  10.416   0.000  0.00  0.00    +0.064 C 
ATOM     28  C   UNL     1      -4.328   9.046   0.000  0.00  0.00    +0.118 C 
ATOM     29  C   UNL     1      -2.902   8.583   0.000  0.00  0.00    +0.312 C 
ATOM     30  O   UNL     1      -2.902   7.083   0.000  0.00  0.00    -0.464 OA
ATOM     31  C   UNL     1      -4.328   6.619   0.000  0.00  0.00    +0.239 C 
ATOM     32  O   UNL     1      -1.688   9.464   0.000  0.00  0.00    -0.250 OA
ATOM     45  C   UNL     1      -5.210   7.833   0.000  0.00  0.00    +0.075 C 
ENDROOT
BRANCH  27  33
ATOM     33  C   UNL     1      -4.057  11.630   0.000  0.00  0.00    -0.032 A 
ATOM     34  C   UNL     1      -4.667  13.000   0.000  0.00  0.00    +0.054 A 
ATOM     35  C   UNL     1      -3.785  14.214   0.000  0.00  0.00    +0.165 A 
ATOM     38  C   UNL     1      -2.293  14.057   0.000  0.00  0.00    +0.201 A 
ATOM     41  C   UNL     1      -1.683  12.687   0.000  0.00  0.00    +0.165 A 
ATOM     44  C   UNL     1      -2.565  11.473   0.000  0.00  0.00    +0.054 A 
BRANCH  35  36
ATOM     36  O   UNL     1      -4.395  15.584   0.000  0.00  0.00    -0.491 OA
ATOM     37  C   UNL     1      -5.887  15.741   0.000  0.00  0.00    +0.277 C 
ENDBRANCH  35  36
BRANCH  38  39
ATOM     39  O   UNL     1      -1.412  15.271   0.000  0.00  0.00    -0.501 OA
ATOM     40  H   UNL     1      -0.480  15.173   0.000  0.00  0.00    +0.292 HD
ENDBRANCH  38  39
BRANCH  41  42
ATOM     42  O   UNL     1      -0.191  12.530   0.000  0.00  0.00    -0.491 OA
ATOM     43  C   UNL     1       0.419  11.160   0.000  0.00  0.00    +0.277 C 
ENDBRANCH  41  42
ENDBRANCH  27  33
BRANCH  17  16
ATOM     16  O   UNL     1      -7.583   6.776   0.000  0.00  0.00    -0.340 OA
BRANCH  16  15
ATOM      6  C   UNL     1      -5.724   1.697   0.000  0.00  0.00    +0.289 C 
ATOM      7  O   UNL     1      -6.335   3.067   0.000  0.00  0.00    -0.338 OA
ATOM      8  C   UNL     1      -5.067   3.045   0.000  0.00  0.00    +0.184 C 
ATOM      9  C   UNL     1      -6.563   2.941   0.000  0.00  0.00    +0.179 C 
ATOM     12  C   UNL     1      -7.402   4.184   0.000  0.00  0.00    +0.201 C 
ATOM     15  C   UNL     1      -6.745   5.532   0.000  0.00  0.00    +0.282 C 
ATOM     46  O   UNL     1      -5.248   5.637   0.000  0.00  0.00    -0.340 OA
ATOM     47  C   UNL     1      -4.409   4.394   0.000  0.00  0.00    +0.178 C 
ATOM     48  C   UNL     1      -3.571   3.150   0.000  0.00  0.00    +0.197 C 
ATOM     49  O   UNL     1      -4.228   1.802   0.000  0.00  0.00    -0.344 OA
BRANCH   6   5
ATOM      1  S   UNL     1      -7.636  -0.171   0.000  0.00  0.00    -0.097 S 
ATOM      2  C   UNL     1      -9.136  -0.154   0.000  0.00  0.00    +0.045 A 
ATOM      3  C   UNL     1      -9.583   1.278   0.000  0.00  0.00    +0.008 A 
ATOM      4  C   UNL     1      -8.360   2.146   0.000  0.00  0.00    +0.016 A 
ATOM      5  C   UNL     1      -7.156   1.250   0.000  0.00  0.00    +0.045 A 
ENDBRANCH   6   5
BRANCH   9  10
ATOM     10  O   UNL     1      -5.906   4.289   0.000  0.00  0.00    -0.386 OA
ATOM     11  H   UNL     1      -4.938   4.356   0.000  0.00  0.00    +0.210 HD
ENDBRANCH   9  10
BRANCH  12  13
ATOM     13  O   UNL     1      -8.898   4.080   0.000  0.00  0.00    -0.384 OA
ATOM     14  H   UNL     1      -9.441   4.884   0.000  0.00  0.00    +0.210 HD
ENDBRANCH  12  13
ENDBRANCH  16  15
ENDBRANCH  17  16
TORSDOF 9