REMARK  Name = NSC 107041
REMARK  36 active torsions:
REMARK  status: ('A' for Active; 'I' for Inactive)
REMARK    1  A    between atoms: N_1  and  C_2
REMARK    2  A    between atoms: N_1  and  C_6
REMARK    3  A    between atoms: C_6  and  C_7
REMARK    4  A    between atoms: C_7  and  C_8
REMARK    5  A    between atoms: C_8  and  C_9
REMARK    6  A    between atoms: C_10  and  C_11
REMARK    7  A    between atoms: C_11  and  C_12
REMARK    8  A    between atoms: C_12  and  C_13
REMARK    9  A    between atoms: C_13  and  C_14
REMARK   10  A    between atoms: C_14  and  C_15
REMARK   11  A    between atoms: C_14  and  C_16
REMARK   12  A    between atoms: C_16  and  C_17
REMARK   13  A    between atoms: C_17  and  C_18
REMARK   14  A    between atoms: C_17  and  C_80
REMARK   15  A    between atoms: C_21  and  C_22
REMARK   16  A    between atoms: C_23  and  O_24
REMARK   17  A    between atoms: C_27  and  C_28
REMARK   18  A    between atoms: C_29  and  O_30
REMARK   19  A    between atoms: C_31  and  C_32
REMARK   20  A    between atoms: C_33  and  O_34
REMARK   21  A    between atoms: C_35  and  C_36
REMARK   22  A    between atoms: C_37  and  O_38
REMARK   23  A    between atoms: C_42  and  O_43
REMARK   24  A    between atoms: C_45  and  O_46
REMARK   25  A    between atoms: C_47  and  O_48
REMARK   26  A    between atoms: C_49  and  O_50
REMARK   27  A    between atoms: C_54  and  O_55
REMARK   28  A    between atoms: O_55  and  C_56
REMARK   29  A    between atoms: C_56  and  C_57
REMARK   30  A    between atoms: C_57  and  C_58
REMARK   31  A    between atoms: C_58  and  O_59
REMARK   32  A    between atoms: C_63  and  O_64
REMARK   33  A    between atoms: C_66  and  O_67
REMARK   34  A    between atoms: C_68  and  C_69
REMARK   35  A    between atoms: C_70  and  O_71
REMARK   36  A    between atoms: C_78  and  C_79
REMARK                            x       y       z     vdW  Elec       q    Type
REMARK                         _______ _______ _______ _____ _____    ______ ____
ROOT
ATOM     21  C   UNL     1     -18.471 -12.070   0.000  0.00  0.00    +0.186 C 
ATOM     22  O   UNL     1     -18.471 -10.570   0.000  0.00  0.00    -0.460 OA
ATOM     23  C   UNL     1     -17.172  -9.820   0.000  0.00  0.00    +0.313 C 
ATOM     24  C   UNL     1     -17.172  -8.320   0.000  0.00  0.00    +0.127 C 
ATOM     25  C   UNL     1     -18.471  -7.570   0.000  0.00  0.00    +0.022 C 
ATOM     26  C   UNL     1     -15.873  -7.570   0.000  0.00  0.00    +0.151 C 
ATOM     29  C   UNL     1     -15.873  -6.070   0.000  0.00  0.00    +0.001 C 
ATOM     30  C   UNL     1     -14.574  -5.320   0.000  0.00  0.00    -0.023 C 
ATOM     31  C   UNL     1     -14.574  -3.820   0.000  0.00  0.00    +0.037 C 
ATOM     32  C   UNL     1     -15.873  -3.070   0.000  0.00  0.00    +0.014 C 
ATOM     33  C   UNL     1     -13.275  -3.070   0.000  0.00  0.00    +0.126 C 
ATOM     36  C   UNL     1     -11.976  -3.820   0.000  0.00  0.00    +0.044 C 
ATOM     37  C   UNL     1     -11.976  -5.320   0.000  0.00  0.00    +0.013 C 
ATOM     38  C   UNL     1     -10.677  -3.070   0.000  0.00  0.00    +0.125 C 
ATOM     41  C   UNL     1      -9.378  -3.820   0.000  0.00  0.00    +0.043 C 
ATOM     42  C   UNL     1      -9.378  -5.320   0.000  0.00  0.00    +0.013 C 
ATOM     43  C   UNL     1      -8.079  -3.070   0.000  0.00  0.00    +0.120 C 
ATOM     46  C   UNL     1      -6.780  -3.820   0.000  0.00  0.00    +0.032 C 
ATOM     47  C   UNL     1      -5.481  -3.070   0.000  0.00  0.00    +0.005 C 
ATOM     48  C   UNL     1      -4.182  -3.820   0.000  0.00  0.00    +0.031 C 
ATOM     49  C   UNL     1      -4.182  -5.320   0.000  0.00  0.00    +0.120 C 
ATOM     52  C   UNL     1      -2.882  -6.070   0.000  0.00  0.00    +0.099 C 
ATOM     53  C   UNL     1      -2.883  -7.570   0.000  0.00  0.00    +0.199 C 
ATOM     56  C   UNL     1      -1.583  -8.320   0.000  0.00  0.00    +0.202 C 
ATOM     59  C   UNL     1      -1.583  -9.820   0.000  0.00  0.00    +0.151 C 
ATOM     62  C   UNL     1      -2.883 -10.570   0.000  0.00  0.00    +0.066 C 
ATOM     63  C   UNL     1      -4.182  -9.820   0.000  0.00  0.00    +0.128 C 
ATOM     64  C   UNL     1      -5.481 -10.570   0.000  0.00  0.00    +0.076 C 
ATOM     65  C   UNL     1      -5.481 -12.070   0.000  0.00  0.00    +0.181 C 
ATOM     74  C   UNL     1      -6.780 -12.820   0.000  0.00  0.00    +0.076 C 
ATOM     75  C   UNL     1      -6.780 -14.320   0.000  0.00  0.00    +0.120 C 
ATOM     78  C   UNL     1      -8.079 -15.070   0.000  0.00  0.00    +0.063 C 
ATOM     79  C   UNL     1      -9.378 -14.320   0.000  0.00  0.00    +0.123 C 
ATOM     82  C   UNL     1      -9.378 -12.820   0.000  0.00  0.00    +0.047 C 
ATOM     83  C   UNL     1      -8.079 -12.070   0.000  0.00  0.00    +0.013 C 
ATOM     84  C   UNL     1     -10.677 -12.070   0.000  0.00  0.00    +0.143 C 
ATOM     87  C   UNL     1     -11.976 -12.820   0.000  0.00  0.00    +0.004 C 
ATOM     88  C   UNL     1     -13.275 -12.070   0.000  0.00  0.00    -0.002 C 
ATOM     89  C   UNL     1     -14.574 -12.820   0.000  0.00  0.00    -0.004 C 
ATOM     90  C   UNL     1     -15.873 -12.070   0.000  0.00  0.00    -0.020 C 
ATOM     91  O   UNL     1      -4.182  -8.320   0.000  0.00  0.00    -0.343 OA
ATOM     92  O   UNL     1     -15.873 -10.570   0.000  0.00  0.00    -0.250 OA
ATOM     93  C   UNL     1     -17.172 -12.820   0.000  0.00  0.00    +0.050 C 
ATOM     94  C   UNL     1     -17.172 -14.320   0.000  0.00  0.00    +0.015 C 
ENDROOT
BRANCH  21  20
ATOM     20  C   UNL     1     -19.770 -12.820   0.000  0.00  0.00    +0.028 C 
ATOM     95  C   UNL     1     -19.770 -14.320   0.000  0.00  0.00    +0.011 C 
BRANCH  20  19
ATOM     19  C   UNL     1     -21.069 -12.070   0.000  0.00  0.00    +0.010 C 
BRANCH  19  17
ATOM     17  C   UNL     1     -22.368 -12.820   0.000  0.00  0.00    -0.014 C 
ATOM     18  C   UNL     1     -22.368 -14.320   0.000  0.00  0.00    +0.007 C 
BRANCH  17  16
ATOM     16  C   UNL     1     -23.667 -12.070   0.000  0.00  0.00    +0.003 C 
BRANCH  16  15
ATOM     15  C   UNL     1     -24.966 -12.820   0.000  0.00  0.00    +0.004 C 
BRANCH  15  14
ATOM     14  C   UNL     1     -26.265 -12.070   0.000  0.00  0.00    +0.027 C 
BRANCH  14  13
ATOM     12  C   UNL     1     -28.863 -12.070   0.000  0.00  0.00    -0.031 C 
ATOM     13  C   UNL     1     -27.564 -12.820   0.000  0.00  0.00    -0.031 C 
BRANCH  12  11
ATOM     11  C   UNL     1     -30.162 -12.820   0.000  0.00  0.00    +0.030 C 
BRANCH  11  10
ATOM     10  C   UNL     1     -31.461 -12.070   0.000  0.00  0.00    +0.041 C 
BRANCH  10   9
ATOM      9  C   UNL     1     -31.461 -10.570   0.000  0.00  0.00    +0.199 C 
BRANCH   9   1
ATOM      1  N   UNL     1     -32.761  -9.820   0.000  0.00  0.00    -0.265 N 
ATOM      2  C   UNL     1     -34.060 -10.570   0.000  0.00  0.00    +0.242 C 
ATOM      3  C   UNL     1     -32.761  -8.320   0.000  0.00  0.00    +0.378 C 
ATOM      4  N   UNL     1     -34.060  -7.570   0.000  0.00  0.00    -0.130 NA
ATOM      5  H   UNL     1     -34.059  -6.586   0.000  0.00  0.00    +0.306 HD
ATOM      6  N   UNL     1     -31.461  -7.570   0.000  0.00  0.00    -0.289 N 
ATOM      7  H   UNL     1     -31.461  -6.586   0.000  0.00  0.00    +0.255 HD
ATOM      8  H   UNL     1     -30.609  -8.062   0.000  0.00  0.00    +0.255 HD
ENDBRANCH   9   1
ENDBRANCH  10   9
ENDBRANCH  11  10
ENDBRANCH  12  11
ENDBRANCH  14  13
ENDBRANCH  15  14
ENDBRANCH  16  15
ENDBRANCH  17  16
ENDBRANCH  19  17
ENDBRANCH  20  19
ENDBRANCH  21  20
BRANCH  26  27
ATOM     27  O   UNL     1     -14.574  -8.320   0.000  0.00  0.00    -0.387 OA
ATOM     28  H   UNL     1     -14.574  -9.290   0.000  0.00  0.00    +0.210 HD
ENDBRANCH  26  27
BRANCH  33  34
ATOM     34  O   UNL     1     -13.275  -1.570   0.000  0.00  0.00    -0.391 OA
ATOM     35  H   UNL     1     -12.435  -1.085   0.000  0.00  0.00    +0.210 HD
ENDBRANCH  33  34
BRANCH  38  39
ATOM     39  O   UNL     1     -10.677  -1.570   0.000  0.00  0.00    -0.391 OA
ATOM     40  H   UNL     1      -9.837  -1.085   0.000  0.00  0.00    +0.210 HD
ENDBRANCH  38  39
BRANCH  43  44
ATOM     44  O   UNL     1      -8.079  -1.570   0.000  0.00  0.00    -0.391 OA
ATOM     45  H   UNL     1      -7.239  -1.085   0.000  0.00  0.00    +0.210 HD
ENDBRANCH  43  44
BRANCH  49  50
ATOM     50  O   UNL     1      -5.481  -6.070   0.000  0.00  0.00    -0.392 OA
ATOM     51  H   UNL     1      -6.321  -5.585   0.000  0.00  0.00    +0.210 HD
ENDBRANCH  49  50
BRANCH  53  54
ATOM     54  O   UNL     1      -1.583  -6.820   0.000  0.00  0.00    -0.362 OA
ATOM     55  H   UNL     1      -0.743  -7.305   0.000  0.00  0.00    +0.213 HD
ENDBRANCH  53  54
BRANCH  56  57
ATOM     57  O   UNL     1      -0.284  -7.570   0.000  0.00  0.00    -0.384 OA
ATOM     58  H   UNL     1       0.556  -8.055   0.000  0.00  0.00    +0.210 HD
ENDBRANCH  56  57
BRANCH  59  60
ATOM     60  O   UNL     1      -0.284 -10.570   0.000  0.00  0.00    -0.389 OA
ATOM     61  H   UNL     1      -0.285 -11.540   0.000  0.00  0.00    +0.210 HD
ENDBRANCH  59  60
BRANCH  75  76
ATOM     76  O   UNL     1      -5.481 -15.070   0.000  0.00  0.00    -0.392 OA
ATOM     77  H   UNL     1      -5.481 -16.040   0.000  0.00  0.00    +0.210 HD
ENDBRANCH  75  76
BRANCH  79  80
ATOM     80  O   UNL     1     -10.677 -15.070   0.000  0.00  0.00    -0.391 OA
ATOM     81  H   UNL     1     -11.517 -14.585   0.000  0.00  0.00    +0.210 HD
ENDBRANCH  79  80
BRANCH  84  85
ATOM     85  O   UNL     1     -10.677 -10.570   0.000  0.00  0.00    -0.387 OA
ATOM     86  H   UNL     1      -9.837 -10.085   0.000  0.00  0.00    +0.210 HD
ENDBRANCH  84  85
BRANCH  65  66
ATOM     66  O   UNL     1      -3.337 -13.308   0.000  0.00  0.00    -0.461 OA
BRANCH  66  67
ATOM     67  C   UNL     1      -3.337 -14.808   0.000  0.00  0.00    +0.318 C 
ATOM     73  O   UNL     1      -4.636 -15.558   0.000  0.00  0.00    -0.250 OA
BRANCH  67  68
ATOM     68  C   UNL     1      -2.038 -15.558   0.000  0.00  0.00    +0.240 C 
BRANCH  68  69
ATOM     69  C   UNL     1      -0.739 -14.808   0.000  0.00  0.00    +0.316 C 
ATOM     72  O   UNL     1       0.560 -15.558   0.000  0.00  0.00    -0.250 OA
BRANCH  69  70
ATOM     70  O   UNL     1      -0.739 -13.308   0.000  0.00  0.00    -0.480 OA
ATOM     71  H   UNL     1       0.072 -12.839   0.000  0.00  0.00    +0.295 HD
ENDBRANCH  69  70
ENDBRANCH  68  69
ENDBRANCH  67  68
ENDBRANCH  66  67
ENDBRANCH  65  66
TORSDOF 27