REMARK  Name = NSC 129230
REMARK  3 active torsions:
REMARK  status: ('A' for Active; 'I' for Inactive)
REMARK    1  A    between atoms: C_5  and  C_6
REMARK    2  A    between atoms: C_9  and  O_10
REMARK    3  A    between atoms: C_9  and  C_11
REMARK                            x       y       z     vdW  Elec       q    Type
REMARK                         _______ _______ _______ _____ _____    ______ ____
ROOT
ATOM      1  O   UNL     1      -0.466   0.726   0.000  0.00  0.00    -0.245 OA
ATOM      2  C   UNL     1       0.078  -0.672   0.000  0.00  0.00    +0.335 C 
ATOM      3  C   UNL     1       1.161   0.366   0.000  0.00  0.00    +0.035 C 
ATOM      4  C   UNL     1      -0.321   0.593   0.000  0.00  0.00    +0.020 C 
ATOM      5  C   UNL     1       0.439   1.680   0.000  0.00  0.00    +0.060 C 
ATOM      6  C   UNL     1      -1.061   1.712   0.000  0.00  0.00    +0.016 C 
ATOM      7  C   UNL     1       1.216   2.963   0.000  0.00  0.00    +0.138 C 
ATOM      8  C   UNL     1       1.248   4.463   0.000  0.00  0.00    +0.199 C 
ATOM      9  C   UNL     1       2.716   2.931   0.000  0.00  0.00    +0.191 C 
ATOM     12  C   UNL     1       4.136   3.414   0.000  0.00  0.00    +0.056 C 
ATOM     13  C   UNL     1       3.438   1.617   0.000  0.00  0.00    +0.342 C 
ATOM     14  O   UNL     1       2.229   0.729   0.000  0.00  0.00    -0.247 OA
ATOM     15  O   UNL     1       4.476   0.534   0.000  0.00  0.00    -0.458 OA
ATOM     16  C   UNL     1       3.699  -0.749   0.000  0.00  0.00    +0.264 C 
ATOM     17  C   UNL     1      -1.254  -3.955   0.000  0.00  0.00    -0.015 C 
ATOM     18  C   UNL     1      -1.673  -5.396   0.000  0.00  0.00    -0.007 C 
ATOM     19  C   UNL     1      -3.172  -5.364   0.000  0.00  0.00    +0.112 C 
ATOM     20  N   UNL     1      -3.851  -3.900   0.000  0.00  0.00    -0.289 NA
ATOM     21  C   UNL     1      -4.889  -2.817   0.000  0.00  0.00    +0.089 C 
ATOM     22  C   UNL     1      -4.111  -1.534   0.000  0.00  0.00    +0.062 C 
ATOM     23  C   UNL     1      -2.504  -1.678   0.000  0.00  0.00    +0.199 C 
ATOM     24  C   UNL     1      -2.536  -3.178   0.000  0.00  0.00    +0.127 C 
ATOM     25  O   UNL     1      -0.066   3.741   0.000  0.00  0.00    -0.364 OA
ATOM     26  O   UNL     1      -1.421  -0.640   0.000  0.00  0.00    -0.456 OA
ENDROOT
BRANCH   9  10
ATOM     10  O   UNL     1       2.487   4.414   0.000  0.00  0.00    -0.375 OA
ATOM     11  H   UNL     1       3.243   5.021   0.000  0.00  0.00    +0.211 HD
ENDBRANCH   9  10
TORSDOF 1