REMARK  Name = NSC 123977
REMARK  12 active torsions:
REMARK  status: ('A' for Active; 'I' for Inactive)
REMARK    1  A    between atoms: C_1  and  O_2
REMARK    2  A    between atoms: C_3  and  O_36
REMARK    3  A    between atoms: C_4  and  O_5
REMARK    4  A    between atoms: C_6  and  O_7
REMARK    5  A    between atoms: O_7  and  C_8
REMARK    6  A    between atoms: C_14  and  O_15
REMARK    7  A    between atoms: C_18  and  C_19
REMARK    8  A    between atoms: C_25  and  C_26
REMARK    9  A    between atoms: C_28  and  O_29
REMARK   10  A    between atoms: C_31  and  C_32
REMARK   11  A    between atoms: O_36  and  C_37
REMARK   12  A    between atoms: C_38  and  C_39
REMARK                            x       y       z     vdW  Elec       q    Type
REMARK                         _______ _______ _______ _____ _____    ______ ____
ROOT
ATOM     10  C   UNL     1       2.873   8.524   0.000  0.00  0.00    +0.122 C 
ATOM     11  C   UNL     1       4.172   7.774   0.000  0.00  0.00    +0.035 C 
ATOM     12  C   UNL     1       5.471   8.524   0.000  0.00  0.00    -0.002 C 
ATOM     13  C   UNL     1       6.770   7.774   0.000  0.00  0.00    +0.004 C 
ATOM     14  C   UNL     1       8.069   8.524   0.000  0.00  0.00    +0.007 C 
ATOM     15  C   UNL     1       8.069  10.025   0.000  0.00  0.00    +0.027 C 
ATOM     16  C   UNL     1       9.368  10.775   0.000  0.00  0.00    +0.075 C 
ATOM     19  C   UNL     1      10.794  10.311   0.000  0.00  0.00    +0.036 C 
ATOM     20  C   UNL     1      11.676  11.525   0.000  0.00  0.00    +0.011 C 
ATOM     21  C   UNL     1      10.794  12.738   0.000  0.00  0.00    +0.027 C 
ATOM     28  C   UNL     1       9.368  12.275   0.000  0.00  0.00    +0.006 C 
ATOM     29  C   UNL     1       9.525  13.766   0.000  0.00  0.00    +0.015 C 
ATOM     30  C   UNL     1       8.069  13.025   0.000  0.00  0.00    +0.041 C 
ATOM     31  C   UNL     1       6.770  12.275   0.000  0.00  0.00    +0.119 C 
ATOM     34  C   UNL     1       6.770  10.775   0.000  0.00  0.00    +0.030 C 
ATOM     35  C   UNL     1       5.471  10.025   0.000  0.00  0.00    -0.024 C 
ATOM     36  C   UNL     1       5.471  11.525   0.000  0.00  0.00    +0.012 C 
ATOM     37  C   UNL     1       4.172  10.775   0.000  0.00  0.00    +0.010 C 
ATOM     38  C   UNL     1       2.873  10.025   0.000  0.00  0.00    +0.032 C 
ENDROOT
BRANCH  21  22
ATOM     22  C   UNL     1      11.258  14.165   0.000  0.00  0.00    -0.022 C 
ATOM     23  C   UNL     1      12.685  14.628   0.000  0.00  0.00    +0.094 C 
ATOM     24  C   UNL     1      12.685  16.128   0.000  0.00  0.00    +0.332 C 
ATOM     25  O   UNL     1      13.898  17.010   0.000  0.00  0.00    -0.246 OA
ATOM     26  O   UNL     1      11.258  16.592   0.000  0.00  0.00    -0.457 OA
ATOM     27  C   UNL     1      10.376  15.378   0.000  0.00  0.00    +0.264 C 
ENDBRANCH  21  22
BRANCH  16  17
ATOM     17  O   UNL     1       9.525   9.283   0.000  0.00  0.00    -0.388 OA
ATOM     18  H   UNL     1       8.740   8.713   0.000  0.00  0.00    +0.210 HD
ENDBRANCH  16  17
BRANCH  31  32
ATOM     32  O   UNL     1       5.471  13.025   0.000  0.00  0.00    -0.391 OA
ATOM     33  H   UNL     1       5.471  13.994   0.000  0.00  0.00    +0.210 HD
ENDBRANCH  31  32
BRANCH  10   9
ATOM      9  O   UNL     1       1.573   7.774   0.000  0.00  0.00    -0.345 OA
BRANCH   9   8
ATOM      1  C   UNL     1       1.573   3.275   0.000  0.00  0.00    +0.174 C 
ATOM      4  C   UNL     1       2.873   4.024   0.000  0.00  0.00    +0.182 C 
ATOM      5  C   UNL     1       2.873   5.524   0.000  0.00  0.00    +0.201 C 
ATOM      8  C   UNL     1       1.573   6.274   0.000  0.00  0.00    +0.282 C 
ATOM     39  O   UNL     1       0.275   5.524   0.000  0.00  0.00    -0.343 OA
ATOM     42  C   UNL     1       0.275   4.024   0.000  0.00  0.00    +0.149 C 
ATOM     43  C   UNL     1      -1.025   3.275   0.000  0.00  0.00    +0.041 C 
BRANCH   1   2
ATOM      2  O   UNL     1       1.573   1.775   0.000  0.00  0.00    -0.387 OA
ATOM      3  H   UNL     1       0.733   1.289   0.000  0.00  0.00    +0.210 HD
ENDBRANCH   1   2
BRANCH   5   6
ATOM      6  O   UNL     1       4.172   6.274   0.000  0.00  0.00    -0.384 OA
ATOM      7  H   UNL     1       5.012   5.790   0.000  0.00  0.00    +0.210 HD
ENDBRANCH   5   6
BRANCH   4  40
ATOM     40  O   UNL     1       1.573   4.774   0.000  0.00  0.00    -0.374 OA
ATOM     41  C   UNL     1       1.573   6.274   0.000  0.00  0.00    +0.194 C 
ENDBRANCH   4  40
ENDBRANCH   9   8
ENDBRANCH  10   9
TORSDOF 8