REMARK  Name = NSC 106995
REMARK  7 active torsions:
REMARK  status: ('A' for Active; 'I' for Inactive)
REMARK    1  A    between atoms: C_3  and  O_4
REMARK    2  A    between atoms: C_6  and  O_7
REMARK    3  A    between atoms: C_8  and  C_9
REMARK    4  A    between atoms: C_14  and  O_15
REMARK    5  A    between atoms: C_18  and  C_19
REMARK    6  A    between atoms: C_19  and  O_21
REMARK    7  A    between atoms: O_21  and  C_22
REMARK                            x       y       z     vdW  Elec       q    Type
REMARK                         _______ _______ _______ _____ _____    ______ ____
ROOT
ATOM      1  N   UNL     1       3.522   5.899   0.000  0.00  0.00    -0.239 NA
ATOM      2  C   UNL     1       4.821   6.649   0.000  0.00  0.00    +0.132 A 
ATOM      3  C   UNL     1       6.120   5.899   0.000  0.00  0.00    +0.148 A 
ATOM      6  C   UNL     1       7.419   6.649   0.000  0.00  0.00    +0.093 A 
ATOM      7  C   UNL     1       7.419   8.149   0.000  0.00  0.00    +0.133 A 
ATOM     10  C   UNL     1       6.120   8.899   0.000  0.00  0.00    +0.083 A 
ATOM     13  C   UNL     1       4.821   8.149   0.000  0.00  0.00    +0.107 A 
ATOM     14  N   UNL     1       3.522   8.899   0.000  0.00  0.00    -0.239 NA
ATOM     15  C   UNL     1       2.223   8.149   0.000  0.00  0.00    +0.132 A 
ATOM     16  C   UNL     1       0.924   8.899   0.000  0.00  0.00    +0.144 A 
ATOM     19  C   UNL     1      -0.375   8.149   0.000  0.00  0.00    +0.048 A 
ATOM     20  C   UNL     1      -0.375   6.649   0.000  0.00  0.00    +0.021 A 
ATOM     21  C   UNL     1       0.924   5.899   0.000  0.00  0.00    +0.087 A 
ATOM     26  C   UNL     1       2.223   6.649   0.000  0.00  0.00    +0.108 A 
ENDROOT
BRANCH   3   4
ATOM      4  O   UNL     1       6.120   4.399   0.000  0.00  0.00    -0.504 OA
ATOM      5  H   UNL     1       5.309   3.931   0.000  0.00  0.00    +0.292 HD
ENDBRANCH   3   4
BRANCH   7   8
ATOM      8  O   UNL     1       8.718   8.899   0.000  0.00  0.00    -0.506 OA
ATOM      9  H   UNL     1       9.530   8.431   0.000  0.00  0.00    +0.292 HD
ENDBRANCH   7   8
BRANCH  10  11
ATOM     11  C   UNL     1       6.120  10.400   0.000  0.00  0.00    +0.264 C 
ATOM     12  O   UNL     1       7.419  11.150   0.000  0.00  0.00    -0.296 OA
ENDBRANCH  10  11
BRANCH  16  17
ATOM     17  O   UNL     1       0.924  10.400   0.000  0.00  0.00    -0.505 OA
ATOM     18  H   UNL     1       1.736  10.868   0.000  0.00  0.00    +0.292 HD
ENDBRANCH  16  17
BRANCH  21  22
ATOM     22  C   UNL     1       0.924   4.399   0.000  0.00  0.00    +0.341 C 
ATOM     23  O   UNL     1       2.223   3.650   0.000  0.00  0.00    -0.245 OA
BRANCH  22  24
ATOM     24  O   UNL     1      -0.375   3.650   0.000  0.00  0.00    -0.464 OA
ATOM     25  C   UNL     1      -0.375   2.150   0.000  0.00  0.00    +0.280 C 
ENDBRANCH  22  24
ENDBRANCH  21  22
TORSDOF 6