REMARK  Name = NSC 128487
REMARK  3 active torsions:
REMARK  status: ('A' for Active; 'I' for Inactive)
REMARK    1  A    between atoms: C_14  and  O_15
REMARK    2  A    between atoms: O_15  and  C_16
REMARK    3  A    between atoms: C_17  and  O_18
REMARK                            x       y       z     vdW  Elec       q    Type
REMARK                         _______ _______ _______ _____ _____    ______ ____
ROOT
ATOM      1  C   UNL     1      -1.598   5.046   0.000  0.00  0.00    +0.466 C 
ATOM      2  O   UNL     1      -0.716   3.833   0.000  0.00  0.00    -0.453 OA
ATOM      3  C   UNL     1       0.711   4.296   0.000  0.00  0.00    +0.167 A 
ATOM      4  C   UNL     1       2.010   3.546   0.000  0.00  0.00    +0.053 A 
ATOM      5  C   UNL     1       3.309   4.296   0.000  0.00  0.00    -0.039 A 
ATOM      6  C   UNL     1       4.481   3.361   0.000  0.00  0.00    +0.051 C 
ATOM      7  C   UNL     1       5.944   3.695   0.000  0.00  0.00    +0.090 C 
ATOM      8  N   UNL     1       6.595   5.046   0.000  0.00  0.00    -0.292 NA
ATOM      9  C   UNL     1       8.081   5.248   0.000  0.00  0.00    +0.085 C 
ATOM     10  C   UNL     1       8.349   6.723   0.000  0.00  0.00    +0.017 C 
ATOM     11  C   UNL     1       7.028   7.434   0.000  0.00  0.00    +0.028 C 
ATOM     12  C   UNL     1       5.944   6.398   0.000  0.00  0.00    +0.053 C 
ATOM     13  C   UNL     1       6.713   7.685   0.000  0.00  0.00    +0.039 C 
ATOM     14  C   UNL     1       5.726   8.815   0.000  0.00  0.00    +0.124 C 
ATOM     17  C   UNL     1       4.347   8.226   0.000  0.00  0.00    +0.189 C 
ATOM     20  C   UNL     1       4.481   6.731   0.000  0.00  0.00    +0.080 C 
ATOM     21  C   UNL     1       3.309   5.796   0.000  0.00  0.00    -0.032 A 
ATOM     22  C   UNL     1       2.010   6.546   0.000  0.00  0.00    +0.054 A 
ATOM     23  C   UNL     1       0.711   5.796   0.000  0.00  0.00    +0.167 A 
ATOM     24  O   UNL     1      -0.716   6.260   0.000  0.00  0.00    -0.453 OA
ENDROOT
BRANCH  14  15
ATOM     15  O   UNL     1       6.060  10.277   0.000  0.00  0.00    -0.497 OA
ATOM     16  C   UNL     1       7.493  10.720   0.000  0.00  0.00    +0.276 C 
ENDBRANCH  14  15
BRANCH  17  18
ATOM     18  O   UNL     1       3.059   8.995   0.000  0.00  0.00    -0.383 OA
ATOM     19  H   UNL     1       3.074   9.965   0.000  0.00  0.00    +0.210 HD
ENDBRANCH  17  18
TORSDOF 2