REMARK  Name = NSC 127473
REMARK  5 active torsions:
REMARK  status: ('A' for Active; 'I' for Inactive)
REMARK    1  A    between atoms: C_5  and  C_6
REMARK    2  A    between atoms: C_6  and  C_7
REMARK    3  A    between atoms: C_7  and  C_8
REMARK    4  A    between atoms: C_9  and  C_10
REMARK    5  A    between atoms: C_10  and  O_11
REMARK                            x       y       z     vdW  Elec       q    Type
REMARK                         _______ _______ _______ _____ _____    ______ ____
ROOT
ATOM      1  H   UNL     1      -1.134   5.916   0.000  0.00  0.00    +0.151 HD
ATOM      2  N   UNL     1       0.293   5.453   0.000  0.00  0.00    -0.294 N 
ATOM      3  C   UNL     1       0.756   4.026   0.000  0.00  0.00    +0.105 C 
ATOM      4  C   UNL     1       2.257   4.026   0.000  0.00  0.00    +0.108 C 
ATOM      5  C   UNL     1       2.720   2.599   0.000  0.00  0.00    +0.069 C 
ATOM     14  S   UNL     1       1.507   1.718   0.000  0.00  0.00    -0.154 S 
ATOM     15  N   UNL     1       2.720   5.453   0.000  0.00  0.00    -0.294 N 
ATOM     16  H   UNL     1       4.147   5.916   0.000  0.00  0.00    +0.151 HD
ATOM     17  C   UNL     1       0.293   2.599   0.000  0.00  0.00    +0.093 C 
ATOM     18  C   UNL     1       1.507   6.334   0.000  0.00  0.00    +0.300 C 
ATOM     19  O   UNL     1       1.507   7.834   0.000  0.00  0.00    -0.253 OA
ENDROOT
BRANCH   5   6
ATOM      6  C   UNL     1       4.147   2.136   0.000  0.00  0.00    +0.020 C 
BRANCH   6   7
ATOM      7  C   UNL     1       4.458   0.669   0.000  0.00  0.00    +0.028 C 
BRANCH   7   8
ATOM      8  C   UNL     1       3.344  -0.335   0.000  0.00  0.00    -0.020 C 
ATOM      9  C   UNL     1       3.656  -1.802   0.000  0.00  0.00    +0.087 C 
BRANCH   9  10
ATOM     10  C   UNL     1       2.541  -2.806   0.000  0.00  0.00    +0.329 C 
ATOM     13  O   UNL     1       2.853  -4.273   0.000  0.00  0.00    -0.246 OA
BRANCH  10  11
ATOM     11  O   UNL     1       1.114  -2.342   0.000  0.00  0.00    -0.478 OA
ATOM     12  H   UNL     1       0.919  -1.426   0.000  0.00  0.00    +0.295 HD
ENDBRANCH  10  11
ENDBRANCH   9  10
ENDBRANCH   7   8
ENDBRANCH   6   7
ENDBRANCH   5   6
TORSDOF 5