REMARK  Name = NSC 100858
REMARK  12 active torsions:
REMARK  status: ('A' for Active; 'I' for Inactive)
REMARK    1  A    between atoms: O_1  and  C_2
REMARK    2  A    between atoms: O_1  and  C_16
REMARK    3  A    between atoms: C_3  and  N_4
REMARK    4  A    between atoms: C_6  and  N_7
REMARK    5  A    between atoms: C_8  and  C_10
REMARK    6  A    between atoms: C_10  and  O_11
REMARK    7  A    between atoms: C_13  and  C_14
REMARK    8  A    between atoms: C_17  and  O_18
REMARK    9  A    between atoms: C_19  and  O_20
REMARK   10  A    between atoms: C_21  and  O_22
REMARK   11  A    between atoms: C_23  and  O_24
REMARK   12  A    between atoms: C_25  and  O_26
REMARK                            x       y       z     vdW  Elec       q    Type
REMARK                         _______ _______ _______ _____ _____    ______ ____
ROOT
ATOM      2  C   UNL     1       7.520  -0.475   0.000  0.00  0.00    +0.268 C 
ATOM      3  C   UNL     1       7.520  -1.975   0.000  0.00  0.00    +0.111 C 
ATOM      7  C   UNL     1       8.819  -2.725   0.000  0.00  0.00    +0.073 C 
ATOM      8  C   UNL     1      10.118  -1.975   0.000  0.00  0.00    +0.195 C 
ATOM     18  C   UNL     1      10.118  -0.475   0.000  0.00  0.00    +0.161 C 
ATOM     19  C   UNL     1      11.417   0.275   0.000  0.00  0.00    +0.042 C 
ATOM     20  O   UNL     1       8.819   0.275   0.000  0.00  0.00    -0.343 OA
ENDROOT
BRANCH   8   9
ATOM      9  N   UNL     1      11.417  -2.725   0.000  0.00  0.00    -0.223 N 
ATOM     10  H   UNL     1      11.417  -3.710   0.000  0.00  0.00    +0.292 HD
ATOM     11  C   UNL     1      12.716  -1.975   0.000  0.00  0.00    +0.389 C 
ATOM     12  N   UNL     1      12.716  -0.475   0.000  0.00  0.00    -0.094 NA
ATOM     13  H   UNL     1      13.569   0.017   0.000  0.00  0.00    +0.364 HD
BRANCH  11  14
ATOM     14  C   UNL     1      14.015  -2.725   0.000  0.00  0.00    +0.421 C 
ATOM     17  O   UNL     1      15.314  -1.975   0.000  0.00  0.00    -0.237 OA
BRANCH  14  15
ATOM     15  O   UNL     1      14.015  -4.225   0.000  0.00  0.00    -0.472 OA
ATOM     16  H   UNL     1      13.203  -4.694   0.000  0.00  0.00    +0.296 HD
ENDBRANCH  14  15
ENDBRANCH  11  14
ENDBRANCH   8   9
BRANCH   3   4
ATOM      4  N   UNL     1       6.221  -2.725   0.000  0.00  0.00    -0.323 NA
ATOM      5  H   UNL     1       6.221  -3.745   0.000  0.00  0.00    +0.119 HD
ATOM      6  H   UNL     1       5.337  -2.216   0.000  0.00  0.00    +0.119 HD
ENDBRANCH   3   4
BRANCH   2   1
ATOM      1  O   UNL     1       6.221   0.275   0.000  0.00  0.00    -0.341 OA
BRANCH   1  21
ATOM     21  C   UNL     1       6.221   1.775   0.000  0.00  0.00    +0.183 C 
ATOM     22  C   UNL     1       4.922   2.525   0.000  0.00  0.00    +0.177 C 
ATOM     25  C   UNL     1       4.922   4.024   0.000  0.00  0.00    +0.176 C 
ATOM     28  C   UNL     1       6.221   4.774   0.000  0.00  0.00    +0.176 C 
ATOM     31  C   UNL     1       7.520   4.025   0.000  0.00  0.00    +0.176 C 
ATOM     34  C   UNL     1       7.520   2.525   0.000  0.00  0.00    +0.177 C 
BRANCH  22  23
ATOM     23  O   UNL     1       3.623   1.775   0.000  0.00  0.00    -0.386 OA
ATOM     24  H   UNL     1       2.783   2.259   0.000  0.00  0.00    +0.210 HD
ENDBRANCH  22  23
BRANCH  25  26
ATOM     26  O   UNL     1       3.623   4.774   0.000  0.00  0.00    -0.386 OA
ATOM     27  H   UNL     1       3.623   5.744   0.000  0.00  0.00    +0.210 HD
ENDBRANCH  25  26
BRANCH  28  29
ATOM     29  O   UNL     1       6.221   6.274   0.000  0.00  0.00    -0.386 OA
ATOM     30  H   UNL     1       7.061   6.760   0.000  0.00  0.00    +0.210 HD
ENDBRANCH  28  29
BRANCH  31  32
ATOM     32  O   UNL     1       8.819   4.775   0.000  0.00  0.00    -0.386 OA
ATOM     33  H   UNL     1       9.659   4.290   0.000  0.00  0.00    +0.210 HD
ENDBRANCH  31  32
BRANCH  34  35
ATOM     35  O   UNL     1       8.819   1.775   0.000  0.00  0.00    -0.386 OA
ATOM     36  H   UNL     1       8.819   0.805   0.000  0.00  0.00    +0.210 HD
ENDBRANCH  34  35
ENDBRANCH   1  21
ENDBRANCH   2   1
TORSDOF 11