REMARK  Name = NSC 121865
REMARK  7 active torsions:
REMARK  status: ('A' for Active; 'I' for Inactive)
REMARK    1  A    between atoms: C_16  and  O_17
REMARK    2  A    between atoms: O_17  and  C_18
REMARK    3  A    between atoms: C_19  and  O_20
REMARK    4  A    between atoms: O_20  and  C_21
REMARK    5  A    between atoms: C_27  and  C_28
REMARK    6  A    between atoms: C_28  and  C_29
REMARK    7  A    between atoms: C_29  and  O_30
REMARK                            x       y       z     vdW  Elec       q    Type
REMARK                         _______ _______ _______ _____ _____    ______ ____
ROOT
ATOM      1  O   UNL     1      -1.986  -0.625   0.000  0.00  0.00    -0.372 OA
ATOM      2  C   UNL     1      -1.986  -1.365   0.000  0.00  0.00    +0.187 C 
ATOM      3  C   UNL     1      -1.716  -2.055   0.000  0.00  0.00    +0.002 C 
ATOM      4  C   UNL     1      -0.956  -2.055   0.000  0.00  0.00    -0.054 C 
ATOM      5  C   UNL     1      -0.586  -2.655   0.000  0.00  0.00    +0.115 C 
ATOM      6  N   UNL     1       1.154  -1.735   0.000  0.00  0.00    -0.295 NA
ATOM      7  C   UNL     1       0.553  -1.365   0.000  0.00  0.00    +0.070 C 
ATOM      8  C   UNL     1      -0.087  -1.735   0.000  0.00  0.00    +0.028 C 
ATOM      9  C   UNL     1       0.553  -0.625   0.000  0.00  0.00    +0.033 C 
ATOM     10  C   UNL     1       1.813  -0.625   0.000  0.00  0.00    +0.030 C 
ATOM     11  C   UNL     1      -0.087  -0.255   0.000  0.00  0.00    +0.089 C 
ATOM     12  C   UNL     1      -0.728  -0.625   0.000  0.00  0.00    +0.047 C 
ATOM     13  N   UNL     1      -0.087   0.475   0.000  0.00  0.00    -0.339 N 
ATOM     14  C   UNL     1       0.573   0.825   0.000  0.00  0.00    +0.035 A 
ATOM     15  C   UNL     1       0.573   1.565   0.000  0.00  0.00    +0.072 A 
ATOM     16  C   UNL     1       1.214   1.935   0.000  0.00  0.00    +0.163 A 
ATOM     19  C   UNL     1       1.853   1.565   0.000  0.00  0.00    +0.162 A 
ATOM     22  C   UNL     1       1.853   0.825   0.000  0.00  0.00    +0.055 A 
ATOM     23  H   UNL     1      -0.378   0.475   0.000  0.00  0.00    +0.146 HD
ATOM     24  C   UNL     1       1.214   0.455   0.000  0.00  0.00    -0.013 A 
ATOM     25  C   UNL     1       1.813  -1.365   0.000  0.00  0.00    +0.086 C 
ATOM     26  C   UNL     1      -0.728  -1.365   0.000  0.00  0.00    +0.025 C 
ATOM     27  C   UNL     1      -1.346  -0.285   0.000  0.00  0.00    +0.135 C 
ENDROOT
BRANCH  16  17
ATOM     17  O   UNL     1       1.214   2.585   0.000  0.00  0.00    -0.491 OA
ATOM     18  C   UNL     1       0.573   2.955   0.000  0.00  0.00    +0.277 C 
ENDBRANCH  16  17
BRANCH  19  20
ATOM     20  O   UNL     1       2.466   1.918   0.000  0.00  0.00    -0.491 OA
ATOM     21  C   UNL     1       3.106   1.548   0.000  0.00  0.00    +0.277 C 
ENDBRANCH  19  20
BRANCH  27  28
ATOM     28  C   UNL     1      -2.261   0.243   0.000  0.00  0.00    +0.152 C 
BRANCH  28  29
ATOM     29  C   UNL     1      -2.652   0.243   0.000  0.00  0.00    +0.307 C 
ATOM     32  O   UNL     1      -3.022   0.884   0.000  0.00  0.00    -0.251 OA
BRANCH  29  30
ATOM     30  O   UNL     1      -1.912   0.243   0.000  0.00  0.00    -0.481 OA
ATOM     31  H   UNL     1      -1.444  -0.569   0.000  0.00  0.00    +0.295 HD
ENDBRANCH  29  30
ENDBRANCH  28  29
ENDBRANCH  27  28
TORSDOF 5