REMARK  Name = NSC 104943
REMARK  10 active torsions:
REMARK  status: ('A' for Active; 'I' for Inactive)
REMARK    1  A    between atoms: C_3  and  O_4
REMARK    2  A    between atoms: C_5  and  C_6
REMARK    3  A    between atoms: C_14  and  O_15
REMARK    4  A    between atoms: O_15  and  C_16
REMARK    5  A    between atoms: C_16  and  C_17
REMARK    6  A    between atoms: C_17  and  C_18
REMARK    7  A    between atoms: C_19  and  C_20
REMARK    8  A    between atoms: C_27  and  O_28
REMARK    9  A    between atoms: O_28  and  C_29
REMARK   10  A    between atoms: C_29  and  C_30
REMARK                            x       y       z     vdW  Elec       q    Type
REMARK                         _______ _______ _______ _____ _____    ______ ____
ROOT
ATOM      1  C   UNL     1     -10.036  -4.379   0.000  0.00  0.00    +0.107 C 
ATOM      2  C   UNL     1     -10.036  -5.879   0.000  0.00  0.00    +0.133 C 
ATOM      5  C   UNL     1     -11.463  -6.342   0.000  0.00  0.00    -0.038 C 
ATOM      6  C   UNL     1     -11.926  -7.769   0.000  0.00  0.00    +0.042 C 
ATOM      7  C   UNL     1     -12.344  -5.129   0.000  0.00  0.00    +0.019 C 
ATOM      8  C   UNL     1      -8.863  -6.814   0.000  0.00  0.00    +0.224 C 
ATOM      9  C   UNL     1      -7.401  -6.480   0.000  0.00  0.00    +0.110 C 
ATOM     10  C   UNL     1      -6.632  -7.768   0.000  0.00  0.00    +0.040 C 
ATOM     11  C   UNL     1      -5.138  -7.902   0.000  0.00  0.00    +0.020 C 
ATOM     12  C   UNL     1      -7.618  -8.897   0.000  0.00  0.00    +0.335 C 
ATOM     13  O   UNL     1      -7.285 -10.360   0.000  0.00  0.00    -0.245 OA
ATOM     14  C   UNL     1      -6.750  -5.129   0.000  0.00  0.00    +0.191 C 
ATOM     22  C   UNL     1      -7.401  -3.777   0.000  0.00  0.00    +0.083 C 
ATOM     23  O   UNL     1      -8.998  -8.308   0.000  0.00  0.00    -0.454 OA
ATOM     24  C   UNL     1     -11.463  -3.915   0.000  0.00  0.00    +0.209 C 
ATOM     29  C   UNL     1      -8.863  -3.443   0.000  0.00  0.00    +0.106 C 
ATOM     30  C   UNL     1      -9.883  -2.344   0.000  0.00  0.00    +0.196 C 
ATOM     31  O   UNL     1      -8.421  -2.010   0.000  0.00  0.00    -0.368 OA
ENDROOT
BRANCH   2   3
ATOM      3  O   UNL     1     -10.304  -7.354   0.000  0.00  0.00    -0.380 OA
ATOM      4  H   UNL     1     -11.217  -7.682   0.000  0.00  0.00    +0.211 HD
ENDBRANCH   2   3
BRANCH  14  15
ATOM     15  O   UNL     1      -5.250  -5.129   0.000  0.00  0.00    -0.457 OA
BRANCH  15  16
ATOM     16  C   UNL     1      -4.500  -3.830   0.000  0.00  0.00    +0.335 C 
ATOM     21  O   UNL     1      -5.250  -2.531   0.000  0.00  0.00    -0.245 OA
BRANCH  16  17
ATOM     17  C   UNL     1      -3.000  -3.830   0.000  0.00  0.00    +0.029 C 
ATOM     18  C   UNL     1      -2.250  -5.129   0.000  0.00  0.00    +0.051 C 
ATOM     19  C   UNL     1      -2.250  -2.531   0.000  0.00  0.00    -0.020 C 
ATOM     20  C   UNL     1      -3.000  -1.232   0.000  0.00  0.00    +0.036 C 
ENDBRANCH  16  17
ENDBRANCH  15  16
ENDBRANCH  14  15
BRANCH  24  25
ATOM     25  O   UNL     1     -11.926  -2.489   0.000  0.00  0.00    -0.457 OA
BRANCH  25  26
ATOM     26  C   UNL     1     -13.393  -2.177   0.000  0.00  0.00    +0.305 C 
ATOM     27  C   UNL     1     -13.857  -0.750   0.000  0.00  0.00    +0.136 C 
ATOM     28  O   UNL     1     -14.397  -3.291   0.000  0.00  0.00    -0.251 OA
ENDBRANCH  25  26
ENDBRANCH  24  25
TORSDOF 6