REMARK  Name = NSC 113497
REMARK  9 active torsions:
REMARK  status: ('A' for Active; 'I' for Inactive)
REMARK    1  A    between atoms: C_3  and  C_4
REMARK    2  A    between atoms: C_3  and  C_5
REMARK    3  A    between atoms: C_8  and  O_9
REMARK    4  A    between atoms: O_9  and  C_10
REMARK    5  A    between atoms: C_10  and  C_11
REMARK    6  A    between atoms: C_13  and  C_14
REMARK    7  A    between atoms: C_18  and  C_19
REMARK    8  A    between atoms: C_20  and  C_21
REMARK    9  A    between atoms: C_32  and  C_33
REMARK                            x       y       z     vdW  Elec       q    Type
REMARK                         _______ _______ _______ _____ _____    ______ ____
ROOT
ATOM      1  O   UNL     1      -6.109 -12.081   0.000  0.00  0.00    -0.292 OA
ATOM      2  C   UNL     1      -4.810 -11.331   0.000  0.00  0.00    +0.162 C 
ATOM      3  C   UNL     1      -3.511 -12.081   0.000  0.00  0.00    +0.031 C 
ATOM      4  C   UNL     1      -2.546 -13.230   0.000  0.00  0.00    +0.019 C 
ATOM      5  C   UNL     1      -4.475 -13.230   0.000  0.00  0.00    +0.019 C 
ATOM      6  C   UNL     1      -2.212 -11.331   0.000  0.00  0.00    +0.016 C 
ATOM      7  C   UNL     1      -0.912 -12.081   0.000  0.00  0.00    +0.050 C 
ATOM      8  C   UNL     1       0.387 -11.331   0.000  0.00  0.00    +0.186 C 
ATOM     13  C   UNL     1       0.387  -9.831   0.000  0.00  0.00    +0.041 C 
ATOM     14  C   UNL     1       1.686 -10.581   0.000  0.00  0.00    +0.018 C 
ATOM     15  C   UNL     1      -0.912  -9.081   0.000  0.00  0.00    +0.011 C 
ATOM     16  C   UNL     1      -0.912  -7.580   0.000  0.00  0.00    +0.006 C 
ATOM     17  C   UNL     1       0.387  -6.830   0.000  0.00  0.00    +0.014 C 
ATOM     18  C   UNL     1       1.686  -7.580   0.000  0.00  0.00    +0.042 C 
ATOM     19  C   UNL     1       1.686  -6.080   0.000  0.00  0.00    +0.018 C 
ATOM     20  C   UNL     1       2.985  -6.830   0.000  0.00  0.00    +0.218 C 
ATOM     26  O   UNL     1       4.284  -7.580   0.000  0.00  0.00    -0.454 OA
ATOM     27  C   UNL     1       4.284  -9.081   0.000  0.00  0.00    +0.340 C 
ATOM     28  C   UNL     1       2.985  -9.831   0.000  0.00  0.00    +0.260 C 
ATOM     29  O   UNL     1       1.686 -10.581   0.000  0.00  0.00    -0.352 OA
ATOM     30  O   UNL     1       5.583  -9.831   0.000  0.00  0.00    -0.248 OA
ATOM     31  C   UNL     1       1.686  -9.081   0.000  0.00  0.00    +0.125 C 
ATOM     32  C   UNL     1      -2.212  -9.831   0.000  0.00  0.00    -0.006 C 
ATOM     33  C   UNL     1      -2.212  -8.331   0.000  0.00  0.00    +0.016 C 
ATOM     34  C   UNL     1      -3.511  -9.081   0.000  0.00  0.00    -0.016 C 
ATOM     35  C   UNL     1      -4.810  -9.831   0.000  0.00  0.00    +0.043 C 
ENDROOT
BRANCH  20  21
ATOM     21  C   UNL     1       2.985  -5.330   0.000  0.00  0.00    +0.031 A 
ATOM     22  C   UNL     1       4.198  -4.449   0.000  0.00  0.00    +0.202 A 
ATOM     23  O   UNL     1       3.735  -3.022   0.000  0.00  0.00    -0.471 OA
ATOM     24  C   UNL     1       2.235  -3.022   0.000  0.00  0.00    +0.195 A 
ATOM     25  C   UNL     1       1.771  -4.449   0.000  0.00  0.00    +0.048 A 
ENDBRANCH  20  21
BRANCH   8   9
ATOM      9  O   UNL     1       1.686 -12.081   0.000  0.00  0.00    -0.461 OA
BRANCH   9  10
ATOM     10  C   UNL     1       1.686 -13.581   0.000  0.00  0.00    +0.304 C 
ATOM     11  C   UNL     1       0.387 -14.331   0.000  0.00  0.00    +0.136 C 
ATOM     12  O   UNL     1       2.985 -14.331   0.000  0.00  0.00    -0.251 OA
ENDBRANCH   9  10
ENDBRANCH   8   9
TORSDOF 3