REMARK  Name = NSC 100290#2
REMARK  0 active torsions:
REMARK  status: ('A' for Active; 'I' for Inactive)
REMARK                            x       y       z     vdW  Elec       q    Type
REMARK                         _______ _______ _______ _____ _____    ______ ____
ROOT
ATOM      1 CL   UNL     1       1.148  15.261   0.000  0.00  0.00    -0.145 Cl
ATOM      2  H   UNL     1       2.478  15.261   0.000  0.00  0.00    +0.145 HD
ENDROOT
TORSDOF 0