REMARK  Name = NSC 1115
REMARK  6 active torsions:
REMARK  status: ('A' for Active; 'I' for Inactive)
REMARK    1  A    between atoms: C_2  and  C_3
REMARK    2  A    between atoms: C_2  and  O_6
REMARK    3  A    between atoms: C_3  and  O_4
REMARK    4  A    between atoms: C_8  and  O_9
REMARK    5  A    between atoms: C_10  and  O_11
REMARK    6  A    between atoms: C_12  and  O_13
REMARK                            x       y       z     vdW  Elec       q    Type
REMARK                         _______ _______ _______ _____ _____    ______ ____
ROOT
ATOM      1  C   UNL     1      -2.490  -3.804   0.000  0.00  0.00    +0.080 C 
ATOM      2  C   UNL     1      -1.191  -4.554   0.000  0.00  0.00    +0.167 C 
ATOM      9  C   UNL     1      -1.191  -6.054   0.000  0.00  0.00    +0.080 C 
ATOM     10  C   UNL     1      -2.490  -6.804   0.000  0.00  0.00    +0.149 C 
ATOM     13  C   UNL     1      -3.789  -6.054   0.000  0.00  0.00    +0.171 C 
ATOM     16  C   UNL     1      -3.789  -4.554   0.000  0.00  0.00    +0.149 C 
ENDROOT
BRANCH   2   3
ATOM      3  C   UNL     1       0.286  -4.814   0.000  0.00  0.00    +0.337 C 
ATOM      6  O   UNL     1       1.250  -3.665   0.000  0.00  0.00    -0.248 OA
BRANCH   3   4
ATOM      4  O   UNL     1       0.799  -6.224   0.000  0.00  0.00    -0.479 OA
ATOM      5  H   UNL     1       0.197  -6.942   0.000  0.00  0.00    +0.295 HD
ENDBRANCH   3   4
ENDBRANCH   2   3
BRANCH   2   7
ATOM      7  O   UNL     1      -0.678  -3.144   0.000  0.00  0.00    -0.377 OA
ATOM      8  H   UNL     1       0.277  -2.976   0.000  0.00  0.00    +0.211 HD
ENDBRANCH   2   7
BRANCH  10  11
ATOM     11  O   UNL     1      -2.490  -8.304   0.000  0.00  0.00    -0.389 OA
ATOM     12  H   UNL     1      -3.330  -8.789   0.000  0.00  0.00    +0.210 HD
ENDBRANCH  10  11
BRANCH  13  14
ATOM     14  O   UNL     1      -5.088  -6.804   0.000  0.00  0.00    -0.387 OA
ATOM     15  H   UNL     1      -5.928  -6.319   0.000  0.00  0.00    +0.210 HD
ENDBRANCH  13  14
BRANCH  16  17
ATOM     17  O   UNL     1      -5.088  -3.804   0.000  0.00  0.00    -0.389 OA
ATOM     18  H   UNL     1      -5.088  -2.834   0.000  0.00  0.00    +0.210 HD
ENDBRANCH  16  17
TORSDOF 6