REMARK  Name = NSC 12865#1
REMARK  6 active torsions:
REMARK  status: ('A' for Active; 'I' for Inactive)
REMARK    1  A    between atoms: C_6  and  C_7
REMARK    2  A    between atoms: C_7  and  C_8
REMARK    3  A    between atoms: C_7  and  O_18
REMARK    4  A    between atoms: C_13  and  C_14
REMARK    5  A    between atoms: C_21  and  O_22
REMARK    6  A    between atoms: O_22  and  C_23
REMARK                            x       y       z     vdW  Elec       q    Type
REMARK                         _______ _______ _______ _____ _____    ______ ____
ROOT
ATOM      7  C   UNL     1      -6.579  -1.627   0.000  0.00  0.00    +0.162 C 
ENDROOT
BRANCH   7   6
ATOM      1  C   UNL     1      -9.177   2.873   0.000  0.00  0.00    +0.032 A 
ATOM      2  C   UNL     1      -7.878   2.123   0.000  0.00  0.00    +0.072 A 
ATOM      3  N   UNL     1      -6.579   2.873   0.000  0.00  0.00    -0.255 NA
ATOM      4  C   UNL     1      -5.280   2.123   0.000  0.00  0.00    +0.112 A 
ATOM      5  C   UNL     1      -5.280   0.623   0.000  0.00  0.00    +0.026 A 
ATOM      6  C   UNL     1      -6.579  -0.127   0.000  0.00  0.00    -0.007 A 
ATOM     20  C   UNL     1      -7.878   0.623   0.000  0.00  0.00    +0.010 A 
ATOM     21  C   UNL     1      -9.177  -0.127   0.000  0.00  0.00    +0.056 A 
ATOM     22  C   UNL     1     -10.476   0.623   0.000  0.00  0.00    +0.121 A 
ATOM     25  C   UNL     1     -10.476   2.123   0.000  0.00  0.00    +0.048 A 
BRANCH  22  23
ATOM     23  O   UNL     1     -11.775  -0.127   0.000  0.00  0.00    -0.495 OA
ATOM     24  C   UNL     1     -13.074   0.623   0.000  0.00  0.00    +0.277 C 
ENDBRANCH  22  23
ENDBRANCH   7   6
BRANCH   7   8
ATOM      8  C   UNL     1      -5.170  -2.140   0.000  0.00  0.00    +0.090 C 
ATOM      9  C   UNL     1      -4.156  -1.034   0.000  0.00  0.00    +0.026 C 
ATOM     10  C   UNL     1      -4.091  -2.533   0.000  0.00  0.00    -0.000 C 
ATOM     11  C   UNL     1      -3.285  -3.798   0.000  0.00  0.00    +0.019 C 
ATOM     12  C   UNL     1      -4.298  -4.904   0.000  0.00  0.00    +0.085 C 
ATOM     13  C   UNL     1      -6.108  -3.169   0.000  0.00  0.00    +0.028 C 
ATOM     16  C   UNL     1      -7.214  -4.182   0.000  0.00  0.00    +0.092 C 
ATOM     17  N   UNL     1      -5.104  -3.639   0.000  0.00  0.00    -0.296 NA
BRANCH  13  14
ATOM     14  C   UNL     1      -7.585  -2.909   0.000  0.00  0.00    -0.030 C 
ATOM     15  C   UNL     1      -8.549  -4.058   0.000  0.00  0.00    +0.004 C 
ENDBRANCH  13  14
ENDBRANCH   7   8
BRANCH   7  18
ATOM     18  O   UNL     1      -7.989  -2.140   0.000  0.00  0.00    -0.386 OA
ATOM     19  H   UNL     1      -8.732  -1.517   0.000  0.00  0.00    +0.210 HD
ENDBRANCH   7  18
TORSDOF 5