REMARK  Name = NSC 113087
REMARK  5 active torsions:
REMARK  status: ('A' for Active; 'I' for Inactive)
REMARK    1  A    between atoms: C_7  and  C_8
REMARK    2  A    between atoms: C_9  and  C_10
REMARK    3  A    between atoms: C_9  and  O_11
REMARK    4  A    between atoms: C_12  and  C_13
REMARK    5  A    between atoms: C_12  and  O_14
REMARK                            x       y       z     vdW  Elec       q    Type
REMARK                         _______ _______ _______ _____ _____    ______ ____
ROOT
ATOM      1  N   UNL     1      -4.079   1.530   0.000  0.00  0.00    -0.291 NA
ATOM      2  C   UNL     1      -5.010   0.211   0.000  0.00  0.00    +0.088 C 
ATOM      3  C   UNL     1      -4.290  -1.105   0.000  0.00  0.00    +0.061 C 
ATOM      4  C   UNL     1      -2.833  -0.750   0.000  0.00  0.00    +0.198 C 
ATOM      5  O   UNL     1      -1.552  -1.530   0.000  0.00  0.00    -0.459 OA
ATOM      6  C   UNL     1      -0.236  -0.810   0.000  0.00  0.00    +0.313 C 
ATOM      7  C   UNL     1       0.915  -1.773   0.000  0.00  0.00    +0.129 C 
ATOM      8  C   UNL     1       0.547  -3.227   0.000  0.00  0.00    +0.022 C 
ATOM      9  C   UNL     1       2.385  -1.473   0.000  0.00  0.00    +0.115 C 
ATOM     10  C   UNL     1       3.839  -1.841   0.000  0.00  0.00    +0.046 C 
ATOM     13  C   UNL     1       3.067  -0.137   0.000  0.00  0.00    +0.189 C 
ATOM     14  C   UNL     1       4.218  -1.099   0.000  0.00  0.00    +0.056 C 
ATOM     17  C   UNL     1       2.448   1.229   0.000  0.00  0.00    +0.342 C 
ATOM     18  O   UNL     1       3.410   2.380   0.000  0.00  0.00    -0.247 OA
ATOM     19  O   UNL     1       0.993   1.597   0.000  0.00  0.00    -0.460 OA
ATOM     20  C   UNL     1      -0.201   0.689   0.000  0.00  0.00    +0.271 C 
ATOM     21  C   UNL     1      -1.482   1.469   0.000  0.00  0.00    +0.150 C 
ATOM     22  C   UNL     1      -1.837   2.927   0.000  0.00  0.00    +0.170 C 
ATOM     23  O   UNL     1      -0.397   2.505   0.000  0.00  0.00    -0.358 OA
ATOM     24  O   UNL     1      -0.382  -2.303   0.000  0.00  0.00    -0.250 OA
ATOM     25  C   UNL     1      -2.798   0.750   0.000  0.00  0.00    +0.136 C 
ATOM     26  C   UNL     1      -3.336   2.962   0.000  0.00  0.00    +0.119 C 
ENDROOT
BRANCH   9  11
ATOM     11  O   UNL     1       2.350  -2.972   0.000  0.00  0.00    -0.385 OA
ATOM     12  H   UNL     1       1.499  -3.438   0.000  0.00  0.00    +0.210 HD
ENDBRANCH   9  11
BRANCH  13  15
ATOM     15  O   UNL     1       4.261   0.771   0.000  0.00  0.00    -0.375 OA
ATOM     16  H   UNL     1       5.155   0.396   0.000  0.00  0.00    +0.211 HD
ENDBRANCH  13  15
TORSDOF 2