REMARK  Name = NSC 108088
REMARK  6 active torsions:
REMARK  status: ('A' for Active; 'I' for Inactive)
REMARK    1  A    between atoms: C_12  and  C_22
REMARK    2  A    between atoms: C_17  and  C_18
REMARK    3  A    between atoms: C_18  and  C_19
REMARK    4  A    between atoms: C_22  and  O_23
REMARK    5  A    between atoms: O_23  and  C_24
REMARK    6  A    between atoms: N_27  and  C_28
REMARK                            x       y       z     vdW  Elec       q    Type
REMARK                         _______ _______ _______ _____ _____    ______ ____
ROOT
ATOM      1  N   UNL     1       1.830   4.553   0.000  0.00  0.00    -0.352 N 
ATOM      2  H   UNL     1       2.294   3.126   0.000  0.00  0.00    +0.166 HD
ATOM      3  C   UNL     1       0.404   5.016   0.000  0.00  0.00    +0.047 A 
ATOM      4  C   UNL     1      -0.895   4.266   0.000  0.00  0.00    +0.026 A 
ATOM      5  C   UNL     1      -2.194   5.016   0.000  0.00  0.00    +0.002 A 
ATOM      6  C   UNL     1      -2.194   6.516   0.000  0.00  0.00    +0.001 A 
ATOM      7  C   UNL     1      -0.895   7.266   0.000  0.00  0.00    +0.010 A 
ATOM      8  C   UNL     1       0.404   6.516   0.000  0.00  0.00    +0.004 A 
ATOM      9  C   UNL     1       1.830   6.980   0.000  0.00  0.00    -0.010 A 
ATOM     10  C   UNL     1       2.065   8.461   0.000  0.00  0.00    +0.057 C 
ATOM     11  C   UNL     1       3.278   9.343   0.000  0.00  0.00    +0.075 C 
ATOM     12  C   UNL     1       4.760   9.108   0.000  0.00  0.00    +0.119 C 
ATOM     13  C   UNL     1       5.642   7.895   0.000  0.00  0.00    +0.016 C 
ATOM     14  C   UNL     1       5.407   6.413   0.000  0.00  0.00    +0.086 C 
ATOM     15  C   UNL     1       4.194   5.532   0.000  0.00  0.00    +0.180 C 
ATOM     16  O   UNL     1       4.544   4.073   0.000  0.00  0.00    -0.290 OA
ATOM     17  C   UNL     1       4.961   6.558   0.000  0.00  0.00    +0.007 C 
ATOM     20  C   UNL     1       3.461   6.558   0.000  0.00  0.00    +0.088 C 
ATOM     25  N   UNL     1       2.780   7.895   0.000  0.00  0.00    -0.301 NA
ATOM     26  C   UNL     1       1.283   7.790   0.000  0.00  0.00    +0.105 C 
ATOM     27  C   UNL     1       2.712   5.766   0.000  0.00  0.00    +0.086 A 
ENDROOT
BRANCH  17  18
ATOM     18  C   UNL     1       5.744   5.279   0.000  0.00  0.00    +0.002 C 
ATOM     19  C   UNL     1       7.244   5.319   0.000  0.00  0.00    +0.004 C 
ENDBRANCH  17  18
BRANCH  12  21
ATOM     21  C   UNL     1       5.544  10.387   0.000  0.00  0.00    +0.312 C 
ATOM     24  O   UNL     1       4.828  11.706   0.000  0.00  0.00    -0.250 OA
BRANCH  21  22
ATOM     22  O   UNL     1       7.043  10.348   0.000  0.00  0.00    -0.468 OA
ATOM     23  C   UNL     1       7.827  11.627   0.000  0.00  0.00    +0.280 C 
ENDBRANCH  21  22
ENDBRANCH  12  21
TORSDOF 3