REMARK  Name = NSC 121860
REMARK  3 active torsions:
REMARK  status: ('A' for Active; 'I' for Inactive)
REMARK    1  A    between atoms: C_23  and  C_24
REMARK    2  A    between atoms: C_24  and  C_25
REMARK    3  A    between atoms: C_25  and  O_26
REMARK                            x       y       z     vdW  Elec       q    Type
REMARK                         _______ _______ _______ _____ _____    ______ ____
ROOT
ATOM      1  O   UNL     1      -1.716  -0.298   0.000  0.00  0.00    -0.372 OA
ATOM      2  C   UNL     1      -1.716  -1.026   0.000  0.00  0.00    +0.187 C 
ATOM      3  C   UNL     1      -1.448  -1.716   0.000  0.00  0.00    +0.002 C 
ATOM      4  C   UNL     1      -0.689  -1.716   0.000  0.00  0.00    -0.054 C 
ATOM      5  C   UNL     1      -0.304  -2.382   0.000  0.00  0.00    +0.115 C 
ATOM      6  N   UNL     1       1.430  -1.381   0.000  0.00  0.00    -0.295 NA
ATOM      7  C   UNL     1       0.821  -1.029   0.000  0.00  0.00    +0.070 C 
ATOM      8  C   UNL     1       0.186  -1.396   0.000  0.00  0.00    +0.028 C 
ATOM      9  C   UNL     1       0.843  -0.309   0.000  0.00  0.00    +0.033 C 
ATOM     10  C   UNL     1       2.081  -0.309   0.000  0.00  0.00    +0.030 C 
ATOM     11  C   UNL     1       0.186   0.070   0.000  0.00  0.00    +0.089 C 
ATOM     12  C   UNL     1      -0.449  -0.296   0.000  0.00  0.00    +0.047 C 
ATOM     13  N   UNL     1       0.186   0.782   0.000  0.00  0.00    -0.339 N 
ATOM     14  C   UNL     1       0.846   1.163   0.000  0.00  0.00    +0.031 A 
ATOM     15  C   UNL     1       0.846   1.897   0.000  0.00  0.00    +0.023 A 
ATOM     16  C   UNL     1       1.481   2.263   0.000  0.00  0.00    +0.002 A 
ATOM     17  C   UNL     1       2.118   1.897   0.000  0.00  0.00    +0.000 A 
ATOM     18  C   UNL     1       2.118   1.163   0.000  0.00  0.00    +0.006 A 
ATOM     19  H   UNL     1      -0.105   0.782   0.000  0.00  0.00    +0.146 HD
ATOM     20  C   UNL     1       1.481   0.796   0.000  0.00  0.00    -0.017 A 
ATOM     21  C   UNL     1       2.081  -1.005   0.000  0.00  0.00    +0.086 C 
ATOM     22  C   UNL     1      -0.449  -1.029   0.000  0.00  0.00    +0.025 C 
ATOM     23  C   UNL     1      -1.081   0.068   0.000  0.00  0.00    +0.135 C 
ENDROOT
BRANCH  23  24
ATOM     24  C   UNL     1      -1.988   0.592   0.000  0.00  0.00    +0.152 C 
BRANCH  24  25
ATOM     25  C   UNL     1      -2.377   0.592   0.000  0.00  0.00    +0.307 C 
ATOM     28  O   UNL     1      -2.747   1.233   0.000  0.00  0.00    -0.251 OA
BRANCH  25  26
ATOM     26  O   UNL     1      -1.638   0.592   0.000  0.00  0.00    -0.481 OA
ATOM     27  H   UNL     1      -1.169  -0.219   0.000  0.00  0.00    +0.295 HD
ENDBRANCH  25  26
ENDBRANCH  24  25
ENDBRANCH  23  24
TORSDOF 3