REMARK  Name = NSC 11440#1
REMARK  1 active torsions:
REMARK  status: ('A' for Active; 'I' for Inactive)
REMARK    1  A    between atoms: N_10  and  C_11
REMARK                            x       y       z     vdW  Elec       q    Type
REMARK                         _______ _______ _______ _____ _____    ______ ____
ROOT
ATOM      1  O   UNL     1     -14.296   1.373   0.000  0.00  0.00    -0.453 OA
ATOM      2  C   UNL     1     -14.296   2.873   0.000  0.00  0.00    +0.466 C 
ATOM      3  O   UNL     1     -12.870   3.336   0.000  0.00  0.00    -0.453 OA
ATOM      4  C   UNL     1     -11.988   2.123   0.000  0.00  0.00    +0.167 A 
ATOM      5  C   UNL     1     -10.496   1.966   0.000  0.00  0.00    +0.061 A 
ATOM      6  C   UNL     1      -9.886   0.596   0.000  0.00  0.00    +0.025 A 
ATOM      7  C   UNL     1     -10.768  -0.618   0.000  0.00  0.00    -0.032 A 
ATOM      8  C   UNL     1     -10.158  -1.988   0.000  0.00  0.00    +0.051 C 
ATOM      9  C   UNL     1      -8.666  -2.145   0.000  0.00  0.00    +0.089 C 
ATOM     10  N   UNL     1      -8.056  -3.515   0.000  0.00  0.00    -0.301 NA
ATOM     11  C   UNL     1      -8.937  -4.729   0.000  0.00  0.00    +0.105 C 
ATOM     12  C   UNL     1      -6.564  -3.672   0.000  0.00  0.00    +0.123 C 
ATOM     13  C   UNL     1      -5.682  -2.459   0.000  0.00  0.00    +0.016 A 
ATOM     14  C   UNL     1      -6.292  -1.088   0.000  0.00  0.00    -0.032 A 
ATOM     15  C   UNL     1      -7.784  -0.931   0.000  0.00  0.00    +0.115 C 
ATOM     16  C   UNL     1      -5.411   0.125   0.000  0.00  0.00    +0.008 A 
ATOM     17  C   UNL     1      -3.919  -0.032   0.000  0.00  0.00    +0.050 A 
ATOM     18  C   UNL     1      -3.309  -1.402   0.000  0.00  0.00    +0.167 A 
ATOM     19  O   UNL     1      -1.882  -1.865   0.000  0.00  0.00    -0.453 OA
ATOM     20  C   UNL     1      -1.882  -3.365   0.000  0.00  0.00    +0.466 C 
ATOM     21  O   UNL     1      -3.309  -3.829   0.000  0.00  0.00    -0.452 OA
ATOM     22  C   UNL     1      -4.190  -2.615   0.000  0.00  0.00    +0.171 A 
ATOM     23  C   UNL     1     -12.259  -0.461   0.000  0.00  0.00    +0.054 A 
ATOM     24  C   UNL     1      -8.394   0.439   0.000  0.00  0.00    +0.168 C 
ATOM     25  O   UNL     1      -7.512   1.652   0.000  0.00  0.00    -0.292 OA
ATOM     26  C   UNL     1     -12.870   0.909   0.000  0.00  0.00    +0.167 A 
ENDROOT
TORSDOF 0