REMARK  Name = NSC 121849
REMARK  5 active torsions:
REMARK  status: ('A' for Active; 'I' for Inactive)
REMARK    1  A    between atoms: C_10  and  O_11
REMARK    2  A    between atoms: O_11  and  C_12
REMARK    3  A    between atoms: C_13  and  O_14
REMARK    4  A    between atoms: O_14  and  C_15
REMARK    5  A    between atoms: N_20  and  C_21
REMARK                            x       y       z     vdW  Elec       q    Type
REMARK                         _______ _______ _______ _____ _____    ______ ____
ROOT
ATOM      1  O   UNL     1       6.260   0.752   0.000  0.00  0.00    -0.275 OA
ATOM      2  C   UNL     1       7.064   2.025   0.000  0.00  0.00    +0.223 C 
ATOM      3  C   UNL     1       8.414   1.977   0.000  0.00  0.00    +0.128 C 
ATOM      4  C   UNL     1       9.122   3.209   0.000  0.00  0.00    +0.133 C 
ATOM      5  C   UNL     1       8.473   4.372   0.000  0.00  0.00    +0.048 C 
ATOM      6  C   UNL     1       7.082   4.442   0.000  0.00  0.00    +0.103 C 
ATOM      7  C   UNL     1       6.488   5.539   0.000  0.00  0.00    +0.053 C 
ATOM      8  C   UNL     1       4.929   5.253   0.000  0.00  0.00    -0.010 A 
ATOM      9  C   UNL     1       3.554   6.052   0.000  0.00  0.00    +0.055 A 
ATOM     10  C   UNL     1       2.178   5.253   0.000  0.00  0.00    +0.162 A 
ATOM     13  C   UNL     1       2.178   3.690   0.000  0.00  0.00    +0.163 A 
ATOM     16  C   UNL     1       3.554   2.886   0.000  0.00  0.00    +0.073 A 
ATOM     17  C   UNL     1       4.929   3.690   0.000  0.00  0.00    +0.044 A 
ATOM     18  C   UNL     1       5.131   5.876   0.000  0.00  0.00    +0.069 C 
ATOM     19  C   UNL     1       5.010   7.299   0.000  0.00  0.00    +0.133 C 
ATOM     20  N   UNL     1       6.286   7.824   0.000  0.00  0.00    +0.238 N 
ATOM     21  C   UNL     1       5.901   9.278   0.000  0.00  0.00    +0.192 C 
ATOM     22  C   UNL     1       9.173   8.194   0.000  0.00  0.00    +0.164 C 
ATOM     23  C   UNL     1      10.442   5.685   0.000  0.00  0.00    -0.023 C 
ATOM     24  C   UNL     1      11.378   4.933   0.000  0.00  0.00    +0.005 C 
ATOM     25  C   UNL     1      11.374   3.730   0.000  0.00  0.00    +0.187 C 
ATOM     26  C   UNL     1       7.167   6.767   0.000  0.00  0.00    -0.066 C 
ATOM     27  C   UNL     1       8.509   6.723   0.000  0.00  0.00    +0.050 C 
ATOM     28  O   UNL     1       8.052   7.984   0.000  0.00  0.00    -0.812 OA
ATOM     29  C   UNL     1       9.202   5.513   0.000  0.00  0.00    +0.031 C 
ATOM     30  O   UNL     1      10.387   2.938   0.000  0.00  0.00    -0.372 OA
ATOM     31  N   UNL     1       6.433   3.239   0.000  0.00  0.00    -0.267 N 
ENDROOT
BRANCH  10  11
ATOM     11  O   UNL     1       0.874   6.003   0.000  0.00  0.00    -0.491 OA
ATOM     12  C   UNL     1       0.872   7.508   0.000  0.00  0.00    +0.277 C 
ENDBRANCH  10  11
BRANCH  13  14
ATOM     14  O   UNL     1       0.873   2.941   0.000  0.00  0.00    -0.491 OA
ATOM     15  C   UNL     1       0.869   1.436   0.000  0.00  0.00    +0.277 C 
ENDBRANCH  13  14
TORSDOF 2