REMARK  Name = 220030
REMARK  9 active torsions:
REMARK  status: ('A' for Active; 'I' for Inactive)
REMARK    1  A    between atoms: C_2  and  C_5
REMARK    2  A    between atoms: C_6  and  C_8
REMARK    3  A    between atoms: C_9  and  C_10
REMARK    4  A    between atoms: C_10  and  C_11
REMARK    5  A    between atoms: C_10  and  O_12
REMARK    6  A    between atoms: C_10  and  C_13
REMARK    7  A    between atoms: C_13  and  C_14
REMARK    8  A    between atoms: C_13  and  C_15
REMARK    9  A    between atoms: C_13  and  C_16
REMARK                            x       y       z     vdW  Elec       q    Type
REMARK                         _______ _______ _______ _____ _____    ______ ____
ROOT
ATOM      6  C   UNL     1       4.721   5.324   0.000  0.00  0.00    -0.062 C 
ATOM      7  C   UNL     1       6.020   6.074   0.000  0.00  0.00    -0.062 C 
ENDROOT
BRANCH   6   3
ATOM      1  N   UNL     1       2.123   2.324   0.000  0.00  0.00    -0.259 NA
ATOM      2  C   UNL     1       3.422   3.074   0.000  0.00  0.00    +0.127 A 
ATOM      3  C   UNL     1       3.422   4.574   0.000  0.00  0.00    +0.043 A 
ATOM      4  C   UNL     1       2.123   5.324   0.000  0.00  0.00    +0.020 A 
ATOM      5  C   UNL     1       0.824   4.574   0.000  0.00  0.00    +0.024 A 
ATOM     16  C   UNL     1       0.824   3.074   0.000  0.00  0.00    +0.038 A 
ATOM     17  C   UNL     1      -0.475   2.324   0.000  0.00  0.00    +0.065 C 
ENDBRANCH   6   3
BRANCH   7   8
ATOM      8  C   UNL     1       7.319   6.824   0.000  0.00  0.00    +0.129 C 
ATOM     15  C   UNL     1       6.569   8.123   0.000  0.00  0.00    +0.056 C 
BRANCH   8   9
ATOM      9  C   UNL     1       8.618   7.574   0.000  0.00  0.00    +0.002 C 
ATOM     10  C   UNL     1       9.917   8.324   0.000  0.00  0.00    +0.014 C 
ATOM     11  C   UNL     1       7.868   8.873   0.000  0.00  0.00    +0.014 C 
ATOM     12  C   UNL     1       9.368   6.274   0.000  0.00  0.00    +0.014 C 
ENDBRANCH   8   9
BRANCH   8  13
ATOM     13  O   UNL     1       8.069   5.524   0.000  0.00  0.00    -0.376 OA
ATOM     14  H   UNL     1       7.584   4.684   0.000  0.00  0.00    +0.211 HD
ENDBRANCH   8  13
ENDBRANCH   7   8
TORSDOF 4