REMARK  Name = 211787
REMARK  10 active torsions:
REMARK  status: ('A' for Active; 'I' for Inactive)
REMARK    1  A    between atoms: O_1  and  C_5
REMARK    2  A    between atoms: O_1  and  C_19
REMARK    3  A    between atoms: O_2  and  C_10
REMARK    4  A    between atoms: O_2  and  C_22
REMARK    5  A    between atoms: C_4  and  C_18
REMARK    6  A    between atoms: C_6  and  N_15
REMARK    7  A    between atoms: C_13  and  C_23
REMARK    8  A    between atoms: C_19  and  C_20
REMARK    9  A    between atoms: C_20  and  C_21
REMARK   10  A    between atoms: C_21  and  C_22
REMARK                            x       y       z     vdW  Elec       q    Type
REMARK                         _______ _______ _______ _____ _____    ______ ____
ROOT
ATOM      2  C   UNL     1      13.365  -6.649   0.000  0.00  0.00    +0.229 C 
ENDROOT
BRANCH   2   1
ATOM      1  O   UNL     1      13.365  -8.149   0.000  0.00  0.00    -0.492 OA
BRANCH   1  15
ATOM     15  C   UNL     1      12.066  -8.899   0.000  0.00  0.00    +0.121 A 
ATOM     16  C   UNL     1      12.066 -10.400   0.000  0.00  0.00    +0.052 A 
ATOM     17  C   UNL     1      10.767 -11.150   0.000  0.00  0.00    +0.088 A 
ATOM     18  C   UNL     1       9.468 -10.400   0.000  0.00  0.00    +0.276 A 
ATOM     22  C   UNL     1       9.468  -8.899   0.000  0.00  0.00    +0.030 A 
ATOM     23  C   UNL     1       8.169  -8.149   0.000  0.00  0.00    +0.051 C 
ATOM     24  C   UNL     1      10.767  -8.149   0.000  0.00  0.00    +0.055 A 
BRANCH  18  19
ATOM     19  N   UNL     1       8.169 -11.150   0.000  0.00  0.00    +0.080 N 
ATOM     20  O   UNL     1       8.169 -12.650   0.000  0.00  0.00    +0.041 OA
ATOM     21  O   UNL     1       6.870 -10.400   0.000  0.00  0.00    -0.576 OA
ENDBRANCH  18  19
ENDBRANCH   1  15
ENDBRANCH   2   1
BRANCH   2   3
ATOM      3  C   UNL     1      12.066  -5.899   0.000  0.00  0.00    +0.044 C 
BRANCH   3   4
ATOM      4  C   UNL     1      12.066  -4.399   0.000  0.00  0.00    +0.044 C 
BRANCH   4   5
ATOM      5  C   UNL     1      10.767  -3.650   0.000  0.00  0.00    +0.229 C 
BRANCH   5   6
ATOM      6  O   UNL     1      10.767  -2.150   0.000  0.00  0.00    -0.492 OA
BRANCH   6   7
ATOM      7  C   UNL     1       9.468  -1.400   0.000  0.00  0.00    +0.121 A 
ATOM      8  C   UNL     1       9.468   0.101   0.000  0.00  0.00    +0.047 A 
ATOM      9  C   UNL     1       8.169   0.851   0.000  0.00  0.00    +0.022 A 
ATOM     10  C   UNL     1       6.870   0.101   0.000  0.00  0.00    +0.052 A 
ATOM     13  C   UNL     1       6.870  -1.400   0.000  0.00  0.00    +0.022 A 
ATOM     14  C   UNL     1       8.169  -2.150   0.000  0.00  0.00    +0.047 A 
BRANCH  10  11
ATOM     11  C   UNL     1       5.571   0.851   0.000  0.00  0.00    +0.099 C 
ATOM     12  N   UNL     1       4.272   1.601   0.000  0.00  0.00    -0.191 NA
ENDBRANCH  10  11
ENDBRANCH   6   7
ENDBRANCH   5   6
ENDBRANCH   4   5
ENDBRANCH   3   4
ENDBRANCH   2   3
TORSDOF 9