REMARK  Name = 222362
REMARK  4 active torsions:
REMARK  status: ('A' for Active; 'I' for Inactive)
REMARK    1  A    between atoms: C_5  and  AS_16
REMARK    2  A    between atoms: C_7  and  O_15
REMARK    3  A    between atoms: C_10  and  AS_16
REMARK    4  A    between atoms: AS_16  and  O_17
REMARK                            x       y       z     vdW  Elec       q    Type
REMARK                         _______ _______ _______ _____ _____    ______ ____
ROOT
ATOM      1  O   UNL     1      -5.471  -4.024   0.000  0.00  0.00    +0.000 OA
ATOM      2 AS   UNL     1      -4.721  -5.324   0.000  0.00  0.00    +0.000 As
ENDROOT
BRANCH   2   5
ATOM      5  C   UNL     1      -3.422  -4.574   0.000  0.00  0.00    +0.000 A 
ATOM      6  C   UNL     1      -2.123  -5.324   0.000  0.00  0.00    +0.000 A 
ATOM      7  C   UNL     1      -0.824  -4.574   0.000  0.00  0.00    +0.000 A 
ATOM      8  C   UNL     1      -0.824  -3.074   0.000  0.00  0.00    +0.000 A 
ATOM      9  C   UNL     1      -2.123  -2.324   0.000  0.00  0.00    +0.000 A 
ATOM     10 CL   UNL     1       0.475  -2.324   0.000  0.00  0.00    +0.000 Cl
ATOM     11  C   UNL     1      -3.422  -3.074   0.000  0.00  0.00    +0.000 A 
ENDBRANCH   2   5
BRANCH   2  12
ATOM     12  C   UNL     1      -6.020  -6.074   0.000  0.00  0.00    +0.000 C 
ATOM     13  C   UNL     1      -6.020  -7.574   0.000  0.00  0.00    +0.000 C 
ATOM     16  C   UNL     1      -7.319  -8.324   0.000  0.00  0.00    +0.000 C 
ATOM     17  C   UNL     1      -8.618  -7.574   0.000  0.00  0.00    +0.000 C 
ATOM     18  C   UNL     1      -8.618  -6.074   0.000  0.00  0.00    +0.000 C 
ATOM     19  C   UNL     1      -7.319  -5.324   0.000  0.00  0.00    +0.000 C 
BRANCH  13  14
ATOM     14  O   UNL     1      -4.721  -8.324   0.000  0.00  0.00    +0.000 OA
ATOM     15  H   UNL     1      -4.721  -9.294   0.000  0.00  0.00    +0.000 HD
ENDBRANCH  13  14
ENDBRANCH   2  12
BRANCH   2   3
ATOM      3  O   UNL     1      -3.971  -6.623   0.000  0.00  0.00    +0.000 OA
ATOM      4  H   UNL     1      -4.456  -7.463   0.000  0.00  0.00    +0.000 HD
ENDBRANCH   2   3
TORSDOF 4