REMARK  Name = 21678
REMARK  5 active torsions:
REMARK  status: ('A' for Active; 'I' for Inactive)
REMARK    1  A    between atoms: N_4  and  C_7
REMARK    2  A    between atoms: N_5  and  C_10
REMARK    3  A    between atoms: C_6  and  N_15
REMARK    4  A    between atoms: C_12  and  O_17
REMARK    5  A    between atoms: O_17  and  C_18
REMARK                            x       y       z     vdW  Elec       q    Type
REMARK                         _______ _______ _______ _____ _____    ______ ____
ROOT
ATOM      1  H   UNL     1      -6.305  -4.468   0.000  0.00  0.00    +0.190 HD
ATOM      2  N   UNL     1      -4.825  -4.223   0.000  0.00  0.00    -0.261 N 
ATOM      3  C   UNL     1      -4.154  -2.882   0.000  0.00  0.00    +0.141 A 
ATOM      7  C   UNL     1      -2.670  -3.107   0.000  0.00  0.00    +0.166 A 
ATOM      8  C   UNL     1      -2.426  -4.587   0.000  0.00  0.00    +0.167 A 
ATOM      9  N   UNL     1      -1.085  -5.259   0.000  0.00  0.00    -0.340 N 
ATOM     10  H   UNL     1      -0.263  -4.717   0.000  0.00  0.00    +0.144 HD
ATOM     11  H   UNL     1      -1.026  -6.241   0.000  0.00  0.00    +0.144 HD
ATOM     22  N   UNL     1      -3.758  -5.277   0.000  0.00  0.00    -0.155 NA
ENDROOT
BRANCH   3   4
ATOM      4  N   UNL     1      -4.843  -1.550   0.000  0.00  0.00    -0.342 N 
ATOM      5  H   UNL     1      -5.827  -1.506   0.000  0.00  0.00    +0.144 HD
ATOM      6  H   UNL     1      -4.313  -0.721   0.000  0.00  0.00    +0.144 HD
ENDBRANCH   3   4
BRANCH   7  12
ATOM     12  N   UNL     1      -1.617  -2.039   0.000  0.00  0.00    -0.142 NA
ATOM     13  N   UNL     1      -0.166  -2.417   0.000  0.00  0.00    -0.149 NA
BRANCH  13  14
ATOM     14  C   UNL     1       1.057  -1.549   0.000  0.00  0.00    +0.086 A 
ATOM     15  C   UNL     1       2.421  -2.174   0.000  0.00  0.00    +0.033 A 
ATOM     16  C   UNL     1       3.644  -1.305   0.000  0.00  0.00    +0.048 A 
ATOM     17  C   UNL     1       3.503   0.189   0.000  0.00  0.00    +0.120 A 
ATOM     20  C   UNL     1       2.139   0.813   0.000  0.00  0.00    +0.048 A 
ATOM     21  C   UNL     1       0.916  -0.055   0.000  0.00  0.00    +0.033 A 
BRANCH  17  18
ATOM     18  O   UNL     1       4.726   1.057   0.000  0.00  0.00    -0.495 OA
ATOM     19  C   UNL     1       4.585   2.551   0.000  0.00  0.00    +0.277 C 
ENDBRANCH  17  18
ENDBRANCH  13  14
ENDBRANCH   7  12
TORSDOF 4