REMARK  Name = 228137
REMARK  6 active torsions:
REMARK  status: ('A' for Active; 'I' for Inactive)
REMARK    1  A    between atoms: C_6  and  S_7
REMARK    2  A    between atoms: S_7  and  C_9
REMARK    3  A    between atoms: C_8  and  C_21
REMARK    4  A    between atoms: C_10  and  O_11
REMARK    5  A    between atoms: O_11  and  C_22
REMARK    6  A    between atoms: C_22  and  C_23
REMARK                            x       y       z     vdW  Elec       q    Type
REMARK                         _______ _______ _______ _____ _____    ______ ____
ROOT
ATOM      5  C   UNL     1       2.250  -8.250   0.000  0.00  0.00    +0.173 A 
ATOM      6  C   UNL     1       3.549  -9.000   0.000  0.00  0.00    +0.328 A 
ATOM      7  C   UNL     1       3.549 -10.500   0.000  0.00  0.00    +0.229 A 
ATOM      8  N   UNL     1       4.976 -10.964   0.000  0.00  0.00    +0.001 NA
ATOM      9  O   UNL     1       5.857  -9.750   0.000  0.00  0.00    -0.098 OA
ATOM     10  C   UNL     1       2.250 -11.250   0.000  0.00  0.00    +0.156 A 
ATOM     14  C   UNL     1       0.951 -10.500   0.000  0.00  0.00    +0.050 A 
ATOM     15  N   UNL     1       4.976  -8.537   0.000  0.00  0.00    +0.061 N 
ATOM     16  O   UNL     1       5.439  -7.110   0.000  0.00  0.00    -0.577 OA
ATOM     17  C   UNL     1       0.951  -9.000   0.000  0.00  0.00    +0.038 A 
ENDROOT
BRANCH   5   4
ATOM      4  S   UNL     1       2.250  -6.750   0.000  0.00  0.00    +0.032 S 
ATOM     18  O   UNL     1       3.750  -6.750   0.000  0.00  0.00    -0.164 OA
ATOM     19  O   UNL     1       0.750  -6.750   0.000  0.00  0.00    -0.164 OA
BRANCH   4   3
ATOM      1  C   UNL     1       0.951  -3.000   0.000  0.00  0.00    +0.005 A 
ATOM      2  C   UNL     1       0.951  -4.500   0.000  0.00  0.00    +0.027 A 
ATOM      3  C   UNL     1       2.250  -5.250   0.000  0.00  0.00    +0.094 A 
ATOM     20  C   UNL     1       3.549  -4.500   0.000  0.00  0.00    +0.027 A 
ATOM     21  C   UNL     1       3.549  -3.000   0.000  0.00  0.00    +0.005 A 
ATOM     22  C   UNL     1       2.250  -2.250   0.000  0.00  0.00    -0.050 A 
ATOM     23  C   UNL     1       2.250  -0.750   0.000  0.00  0.00    +0.044 C 
ENDBRANCH   4   3
ENDBRANCH   5   4
BRANCH  10  11
ATOM     11  O   UNL     1       2.250 -12.750   0.000  0.00  0.00    -0.490 OA
BRANCH  11  12
ATOM     12  C   UNL     1       3.549 -13.500   0.000  0.00  0.00    +0.226 C 
ATOM     13  C   UNL     1       3.549 -15.000   0.000  0.00  0.00    +0.048 C 
ENDBRANCH  11  12
ENDBRANCH  10  11
TORSDOF 4