REMARK  Name = 207895
REMARK  3 active torsions:
REMARK  status: ('A' for Active; 'I' for Inactive)
REMARK    1  A    between atoms: C_2  and  N_17
REMARK    2  A    between atoms: C_8  and  N_10
REMARK    3  A    between atoms: N_16  and  C_20
REMARK                            x       y       z     vdW  Elec       q    Type
REMARK                         _______ _______ _______ _____ _____    ______ ____
ROOT
ATOM      1  N   UNL     1       3.287   4.775   0.000  0.00  0.00    +0.004 NA
ATOM      2  C   UNL     1       3.750   3.348   0.000  0.00  0.00    +0.264 A 
ATOM      3  C   UNL     1       5.250   3.348   0.000  0.00  0.00    +0.327 A 
ATOM      4  C   UNL     1       6.000   2.049   0.000  0.00  0.00    +0.111 A 
ATOM     12  C   UNL     1       5.250   0.750   0.000  0.00  0.00    +0.037 A 
ATOM     13  C   UNL     1       3.750   0.750   0.000  0.00  0.00    +0.089 A 
ATOM     14  N   UNL     1       5.713   4.775   0.000  0.00  0.00    +0.061 N 
ATOM     15  O   UNL     1       7.140   5.238   0.000  0.00  0.00    -0.577 OA
ATOM     16  C   UNL     1       3.000   2.049   0.000  0.00  0.00    +0.308 A 
ATOM     20  O   UNL     1       4.500   5.656   0.000  0.00  0.00    -0.098 OA
ENDROOT
BRANCH   4   5
ATOM      5  N   UNL     1       7.500   2.049   0.000  0.00  0.00    -0.322 N 
ATOM      6  C   UNL     1       8.250   0.750   0.000  0.00  0.00    +0.120 C 
ATOM      7  C   UNL     1       9.750   0.750   0.000  0.00  0.00    +0.103 C 
ATOM      8  N   UNL     1      10.500   2.049   0.000  0.00  0.00    -0.302 NA
ATOM      9  C   UNL     1      12.000   2.049   0.000  0.00  0.00    +0.105 C 
ATOM     10  C   UNL     1       9.750   3.348   0.000  0.00  0.00    +0.103 C 
ATOM     11  C   UNL     1       8.250   3.348   0.000  0.00  0.00    +0.120 C 
ENDBRANCH   4   5
BRANCH  16  17
ATOM     17  N   UNL     1       1.500   2.049   0.000  0.00  0.00    +0.082 N 
ATOM     18  O   UNL     1       0.750   0.750   0.000  0.00  0.00    +0.042 OA
ATOM     19  O   UNL     1       0.750   3.348   0.000  0.00  0.00    -0.576 OA
ENDBRANCH  16  17
TORSDOF 2