REMARK  Name = 214009
REMARK  6 active torsions:
REMARK  status: ('A' for Active; 'I' for Inactive)
REMARK    1  A    between atoms: N_1  and  C_9
REMARK    2  A    between atoms: N_2  and  C_10
REMARK    3  A    between atoms: C_4  and  C_22
REMARK    4  A    between atoms: C_12  and  N_24
REMARK    5  A    between atoms: C_15  and  C_23
REMARK    6  A    between atoms: C_17  and  N_27
REMARK                            x       y       z     vdW  Elec       q    Type
REMARK                         _______ _______ _______ _____ _____    ______ ____
ROOT
ATOM     10  C   UNL     1      -3.522   7.399   0.000  0.00  0.00    +0.107 A 
ATOM     11  C   UNL     1      -4.821   6.649   0.000  0.00  0.00    +0.032 A 
ATOM     12  C   UNL     1      -4.821   5.149   0.000  0.00  0.00    +0.005 A 
ATOM     13  C   UNL     1      -3.522   4.399   0.000  0.00  0.00    -0.049 A 
ATOM     14  C   UNL     1      -3.522   2.900   0.000  0.00  0.00    +0.044 C 
ATOM     15  C   UNL     1      -2.223   5.149   0.000  0.00  0.00    +0.029 A 
ATOM     16  C   UNL     1      -2.223   6.649   0.000  0.00  0.00    +0.062 A 
ENDROOT
BRANCH  16  17
ATOM     17  N   UNL     1      -0.924   7.399   0.000  0.00  0.00    -0.267 N 
ATOM     18  H   UNL     1      -0.071   6.907   0.000  0.00  0.00    +0.156 HD
ATOM     19  C   UNL     1      -0.924   8.899   0.000  0.00  0.00    +0.308 C 
ATOM     20  N   UNL     1       0.375   9.649   0.000  0.00  0.00    -0.267 N 
ATOM     21  H   UNL     1       1.228   9.157   0.000  0.00  0.00    +0.156 HD
ATOM     29  O   UNL     1      -2.223   9.649   0.000  0.00  0.00    -0.252 OA
BRANCH  20  22
ATOM     22  C   UNL     1       0.375  11.150   0.000  0.00  0.00    +0.070 A 
ATOM     23  C   UNL     1       1.674  11.900   0.000  0.00  0.00    +0.145 A 
ATOM     24  C   UNL     1       1.674  13.400   0.000  0.00  0.00    +0.040 A 
ATOM     25  C   UNL     1       0.375  14.150   0.000  0.00  0.00    +0.003 A 
ATOM     26  C   UNL     1      -0.924  13.400   0.000  0.00  0.00    +0.002 A 
ATOM     27  F   UNL     1       2.973  11.150   0.000  0.00  0.00    -0.204 F 
ATOM     28  C   UNL     1      -0.924  11.900   0.000  0.00  0.00    +0.026 A 
ENDBRANCH  20  22
ENDBRANCH  16  17
BRANCH  10   9
ATOM      1  N   UNL     1      -4.821   9.649   0.000  0.00  0.00    -0.149 NA
ATOM      9  N   UNL     1      -3.522   8.899   0.000  0.00  0.00    -0.147 NA
BRANCH   1   2
ATOM      2  C   UNL     1      -4.821  11.150   0.000  0.00  0.00    +0.086 A 
ATOM      3  C   UNL     1      -6.120  11.900   0.000  0.00  0.00    +0.030 A 
ATOM      4  C   UNL     1      -6.120  13.400   0.000  0.00  0.00    +0.005 A 
ATOM      5  C   UNL     1      -4.821  14.150   0.000  0.00  0.00    -0.050 A 
ATOM      6  C   UNL     1      -4.821  15.650   0.000  0.00  0.00    +0.044 C 
ATOM      7  C   UNL     1      -3.522  13.400   0.000  0.00  0.00    +0.005 A 
ATOM      8  C   UNL     1      -3.522  11.900   0.000  0.00  0.00    +0.030 A 
ENDBRANCH   1   2
ENDBRANCH  10   9
TORSDOF 4