REMARK  Name = 211490
REMARK  10 active torsions:
REMARK  status: ('A' for Active; 'I' for Inactive)
REMARK    1  A    between atoms: C_4  and  O_28
REMARK    2  A    between atoms: C_5  and  O_30
REMARK    3  A    between atoms: C_9  and  C_10
REMARK    4  A    between atoms: C_12  and  C_18
REMARK    5  A    between atoms: C_20  and  O_32
REMARK    6  A    between atoms: C_22  and  O_34
REMARK    7  A    between atoms: O_28  and  C_29
REMARK    8  A    between atoms: O_30  and  C_31
REMARK    9  A    between atoms: O_32  and  C_33
REMARK   10  A    between atoms: O_34  and  C_35
REMARK                            x       y       z     vdW  Elec       q    Type
REMARK                         _______ _______ _______ _____ _____    ______ ____
ROOT
ATOM      1  O   UNL     1     -11.035   4.113   0.000  0.00  0.00    -0.454 OA
ATOM      2  C   UNL     1     -11.035   2.613   0.000  0.00  0.00    +0.150 A 
ATOM      3  C   UNL     1     -12.334   1.863   0.000  0.00  0.00    +0.060 A 
ATOM      4  C   UNL     1     -13.633   2.613   0.000  0.00  0.00    +0.015 A 
ATOM      5  C   UNL     1     -14.932   1.863   0.000  0.00  0.00    +0.001 A 
ATOM      6  C   UNL     1     -14.932   0.363   0.000  0.00  0.00    +0.004 A 
ATOM      7  C   UNL     1     -13.633  -0.387   0.000  0.00  0.00    +0.047 A 
ATOM      8  C   UNL     1     -12.334   0.363   0.000  0.00  0.00    +0.143 A 
ATOM      9  O   UNL     1     -11.035  -0.387   0.000  0.00  0.00    -0.422 OA
ATOM     10  C   UNL     1      -9.736   0.363   0.000  0.00  0.00    +0.345 A 
ATOM     11  O   UNL     1      -8.437  -0.387   0.000  0.00  0.00    -0.245 OA
ATOM     12  C   UNL     1      -9.736   1.863   0.000  0.00  0.00    +0.091 A 
ATOM     13  C   UNL     1      -8.437   2.614   0.000  0.00  0.00    +0.086 C 
ATOM     24  C   UNL     1      -8.437   4.114   0.000  0.00  0.00    +0.033 C 
ATOM     25  C   UNL     1      -9.736   4.863   0.000  0.00  0.00    +0.133 C 
ENDROOT
BRANCH  13  14
ATOM     14  C   UNL     1      -7.138   1.863   0.000  0.00  0.00    -0.032 A 
ATOM     15  C   UNL     1      -7.138   0.363   0.000  0.00  0.00    +0.008 A 
ATOM     16  C   UNL     1      -5.839  -0.387   0.000  0.00  0.00    +0.050 A 
ATOM     17  C   UNL     1      -4.540   0.363   0.000  0.00  0.00    +0.162 A 
ATOM     20  C   UNL     1      -4.540   1.863   0.000  0.00  0.00    +0.162 A 
ATOM     23  C   UNL     1      -5.839   2.614   0.000  0.00  0.00    +0.054 A 
BRANCH  17  18
ATOM     18  O   UNL     1      -3.241  -0.387   0.000  0.00  0.00    -0.491 OA
ATOM     19  C   UNL     1      -1.942   0.363   0.000  0.00  0.00    +0.277 C 
ENDBRANCH  17  18
BRANCH  20  21
ATOM     21  O   UNL     1      -3.241   2.614   0.000  0.00  0.00    -0.491 OA
ATOM     22  C   UNL     1      -1.942   1.863   0.000  0.00  0.00    +0.277 C 
ENDBRANCH  20  21
ENDBRANCH  13  14
BRANCH  25  26
ATOM     26  C   UNL     1      -9.736   6.364   0.000  0.00  0.00    +0.021 A 
ATOM     27  C   UNL     1      -8.437   7.114   0.000  0.00  0.00    +0.061 A 
ATOM     28  C   UNL     1      -8.437   8.614   0.000  0.00  0.00    +0.162 A 
ATOM     31  C   UNL     1      -9.736   9.364   0.000  0.00  0.00    +0.162 A 
ATOM     34  C   UNL     1     -11.035   8.613   0.000  0.00  0.00    +0.050 A 
ATOM     35  C   UNL     1     -11.035   7.113   0.000  0.00  0.00    +0.015 A 
BRANCH  28  29
ATOM     29  O   UNL     1      -7.138   9.364   0.000  0.00  0.00    -0.491 OA
ATOM     30  C   UNL     1      -5.839   8.614   0.000  0.00  0.00    +0.277 C 
ENDBRANCH  28  29
BRANCH  31  32
ATOM     32  O   UNL     1      -9.736  10.864   0.000  0.00  0.00    -0.491 OA
ATOM     33  C   UNL     1     -11.035  11.613   0.000  0.00  0.00    +0.277 C 
ENDBRANCH  31  32
ENDBRANCH  25  26
TORSDOF 6