REMARK  Name = 209901
REMARK  2 active torsions:
REMARK  status: ('A' for Active; 'I' for Inactive)
REMARK    1  A    between atoms: O_4  and  C_14
REMARK    2  A    between atoms: O_4  and  C_19
REMARK                            x       y       z     vdW  Elec       q    Type
REMARK                         _______ _______ _______ _____ _____    ______ ____
ROOT
ATOM      1 CL   UNL     1      -0.380   0.990   0.000  0.00  0.00    -0.081 Cl
ATOM      2  C   UNL     1      -1.262   2.204   0.000  0.00  0.00    +0.067 A 
ATOM      3  C   UNL     1      -0.652   3.574   0.000  0.00  0.00    +0.100 A 
ATOM      4  C   UNL     1      -1.533   4.788   0.000  0.00  0.00    +0.044 A 
ATOM      5  C   UNL     1      -3.025   4.631   0.000  0.00  0.00    +0.017 A 
ATOM      6  C   UNL     1      -3.635   3.261   0.000  0.00  0.00    +0.003 A 
ATOM      7  S   UNL     1      -0.652   6.001   0.000  0.00  0.00    -0.029 S 
ATOM      8  C   UNL     1       0.775   5.538   0.000  0.00  0.00    +0.263 A 
ATOM     18  N   UNL     1       0.775   4.038   0.000  0.00  0.00    -0.204 NA
ATOM     19  C   UNL     1      -2.754   2.047   0.000  0.00  0.00    +0.022 A 
ENDROOT
BRANCH   8   9
ATOM      9  O   UNL     1       1.988   6.419   0.000  0.00  0.00    -0.433 OA
BRANCH   9  10
ATOM     10  C   UNL     1       1.832   7.911   0.000  0.00  0.00    +0.132 A 
ATOM     11  C   UNL     1       3.045   8.793   0.000  0.00  0.00    +0.048 A 
ATOM     12  C   UNL     1       2.888  10.285   0.000  0.00  0.00    +0.025 A 
ATOM     13  C   UNL     1       1.518  10.895   0.000  0.00  0.00    +0.059 A 
ATOM     14  C   UNL     1       0.304  10.013   0.000  0.00  0.00    +0.063 A 
ATOM     15 CL   UNL     1      -1.066  10.623   0.000  0.00  0.00    -0.082 Cl
ATOM     16 CL   UNL     1       1.361  12.386   0.000  0.00  0.00    -0.082 Cl
ATOM     17  C   UNL     1       0.461   8.521   0.000  0.00  0.00    +0.067 A 
ENDBRANCH   9  10
ENDBRANCH   8   9
TORSDOF 2