REMARK  Name = 21970
REMARK  1 active torsions:
REMARK  status: ('A' for Active; 'I' for Inactive)
REMARK    1  A    between atoms: C_6  and  C_21
REMARK                            x       y       z     vdW  Elec       q    Type
REMARK                         _______ _______ _______ _____ _____    ______ ____
ROOT
ATOM      1  C   UNL     1       9.500   5.617   0.000  0.00  0.00    +0.040 C 
ATOM      2  C   UNL     1       8.153   6.277   0.000  0.00  0.00    +0.041 C 
ATOM      3  C   UNL     1       7.167   5.146   0.000  0.00  0.00    -0.031 A 
ATOM      4  C   UNL     1       8.003   3.901   0.000  0.00  0.00    -0.011 A 
ATOM      5  C   UNL     1       7.343   2.554   0.000  0.00  0.00    -0.017 A 
ATOM      6  C   UNL     1       5.847   2.452   0.000  0.00  0.00    +0.017 A 
ATOM      7  C   UNL     1       5.010   3.697   0.000  0.00  0.00    -0.009 A 
ATOM      8  C   UNL     1       3.514   3.595   0.000  0.00  0.00    -0.010 A 
ATOM      9  C   UNL     1       2.854   2.248   0.000  0.00  0.00    +0.009 A 
ATOM     10  C   UNL     1       1.357   2.146   0.000  0.00  0.00    +0.001 A 
ATOM     11  C   UNL     1       0.521   3.391   0.000  0.00  0.00    +0.001 A 
ATOM     12  C   UNL     1       1.181   4.738   0.000  0.00  0.00    +0.008 A 
ATOM     13  C   UNL     1       2.677   4.840   0.000  0.00  0.00    -0.017 A 
ATOM     14  C   UNL     1       3.337   6.187   0.000  0.00  0.00    +0.009 A 
ATOM     15  C   UNL     1       4.834   6.289   0.000  0.00  0.00    +0.009 A 
ATOM     16  C   UNL     1       8.180   1.309   0.000  0.00  0.00    +0.009 A 
ATOM     17  C   UNL     1       9.677   1.411   0.000  0.00  0.00    +0.004 A 
ATOM     18  C   UNL     1      10.336   2.758   0.000  0.00  0.00    -0.047 A 
ATOM     19  C   UNL     1      11.833   2.860   0.000  0.00  0.00    +0.044 C 
ATOM     20  C   UNL     1       5.670   5.044   0.000  0.00  0.00    -0.013 A 
ATOM     21  C   UNL     1       9.500   4.003   0.000  0.00  0.00    -0.036 A 
ENDROOT
TORSDOF 0