REMARK  Name = 206630
REMARK  6 active torsions:
REMARK  status: ('A' for Active; 'I' for Inactive)
REMARK    1  A    between atoms: C_2  and  O_5
REMARK    2  A    between atoms: N_4  and  C_8
REMARK    3  A    between atoms: O_5  and  C_6
REMARK    4  A    between atoms: C_8  and  C_9
REMARK    5  A    between atoms: C_8  and  C_10
REMARK    6  A    between atoms: C_8  and  C_11
REMARK                            x       y       z     vdW  Elec       q    Type
REMARK                         _______ _______ _______ _____ _____    ______ ____
ROOT
ATOM      1  C   UNL     1      -5.561  -2.287   0.000  0.00  0.00    +0.131 C 
ATOM      2  C   UNL     1      -4.500  -3.348   0.000  0.00  0.00    +0.206 C 
ATOM      3  C   UNL     1      -5.561  -4.409   0.000  0.00  0.00    +0.131 C 
ATOM     10  N   UNL     1      -6.621  -3.348   0.000  0.00  0.00    -0.290 NA
ENDROOT
BRANCH  10  11
ATOM     11  C   UNL     1      -8.121  -3.348   0.000  0.00  0.00    +0.014 C 
ATOM     12  C   UNL     1      -8.121  -4.848   0.000  0.00  0.00    +0.027 C 
ATOM     13  C   UNL     1      -9.621  -3.348   0.000  0.00  0.00    +0.027 C 
ATOM     14  C   UNL     1      -8.121  -1.848   0.000  0.00  0.00    +0.027 C 
ENDBRANCH  10  11
BRANCH   2   4
ATOM      4  O   UNL     1      -3.000  -3.348   0.000  0.00  0.00    -0.445 OA
BRANCH   4   5
ATOM      5  C   UNL     1      -2.250  -2.049   0.000  0.00  0.00    +0.398 C 
ATOM      6  N   UNL     1      -0.750  -2.049   0.000  0.00  0.00    -0.295 N 
ATOM      7  H   UNL     1      -0.258  -1.196   0.000  0.00  0.00    +0.148 HD
ATOM      8  H   UNL     1      -0.258  -2.902   0.000  0.00  0.00    +0.148 HD
ATOM      9  O   UNL     1      -3.000  -0.750   0.000  0.00  0.00    -0.227 OA
ENDBRANCH   4   5
ENDBRANCH   2   4
TORSDOF 3