REMARK  Name = 215721
REMARK  5 active torsions:
REMARK  status: ('A' for Active; 'I' for Inactive)
REMARK    1  A    between atoms: C_3  and  O_15
REMARK    2  A    between atoms: C_4  and  N_16
REMARK    3  A    between atoms: C_10  and  C_20
REMARK    4  A    between atoms: N_16  and  C_17
REMARK    5  A    between atoms: C_17  and  N_19
REMARK                            x       y       z     vdW  Elec       q    Type
REMARK                         _______ _______ _______ _____ _____    ______ ____
ROOT
ATOM      7  C   UNL     1      -1.025  -7.774   0.000  0.00  0.00    +0.141 C 
ATOM     19  S   UNL     1      -2.324  -7.024   0.000  0.00  0.00    -0.018 S 
ENDROOT
BRANCH   7   8
ATOM      8  N   UNL     1       0.275  -7.024   0.000  0.00  0.00    -0.264 N 
ATOM      9  H   UNL     1       1.127  -7.517   0.000  0.00  0.00    +0.157 HD
ATOM     10  C   UNL     1       0.275  -5.524   0.000  0.00  0.00    +0.250 C 
ATOM     11  O   UNL     1      -1.025  -4.774   0.000  0.00  0.00    -0.270 OA
BRANCH  10  12
ATOM     12  C   UNL     1       1.574  -4.774   0.000  0.00  0.00    +0.038 A 
ATOM     13  C   UNL     1       2.873  -5.524   0.000  0.00  0.00    +0.028 A 
ATOM     14  C   UNL     1       4.172  -4.774   0.000  0.00  0.00    +0.019 A 
ATOM     15  C   UNL     1       4.172  -3.275   0.000  0.00  0.00    +0.015 A 
ATOM     16  C   UNL     1       2.873  -2.525   0.000  0.00  0.00    +0.002 A 
ATOM     17 BR   UNL     1       5.471  -5.524   0.000  0.00  0.00    -0.050 Br
ATOM     18  C   UNL     1       1.574  -3.275   0.000  0.00  0.00    +0.013 A 
ENDBRANCH  10  12
ENDBRANCH   7   8
BRANCH   7   5
ATOM      5  N   UNL     1      -1.025  -9.274   0.000  0.00  0.00    -0.294 N 
ATOM      6  H   UNL     1      -0.172  -9.767   0.000  0.00  0.00    +0.154 HD
BRANCH   5   4
ATOM      1 CL   UNL     1      -3.623 -13.775   0.000  0.00  0.00    -0.083 Cl
ATOM      2  C   UNL     1      -3.623 -12.275   0.000  0.00  0.00    +0.043 A 
ATOM      3  C   UNL     1      -2.324 -11.525   0.000  0.00  0.00    +0.047 A 
ATOM      4  C   UNL     1      -2.324 -10.025   0.000  0.00  0.00    +0.076 A 
ATOM     20  C   UNL     1      -3.623  -9.274   0.000  0.00  0.00    +0.138 A 
ATOM     23  C   UNL     1      -4.922 -10.025   0.000  0.00  0.00    +0.049 A 
ATOM     24  C   UNL     1      -4.922 -11.525   0.000  0.00  0.00    +0.023 A 
BRANCH  20  21
ATOM     21  O   UNL     1      -3.623  -7.774   0.000  0.00  0.00    -0.505 OA
ATOM     22  H   UNL     1      -2.811  -7.306   0.000  0.00  0.00    +0.292 HD
ENDBRANCH  20  21
ENDBRANCH   5   4
ENDBRANCH   7   5
TORSDOF 5