REMARK  Name = 21333
REMARK  7 active torsions:
REMARK  status: ('A' for Active; 'I' for Inactive)
REMARK    1  A    between atoms: N_1  and  C_13
REMARK    2  A    between atoms: C_2  and  C_6
REMARK    3  A    between atoms: C_2  and  C_14
REMARK    4  A    between atoms: C_8  and  O_18
REMARK    5  A    between atoms: C_11  and  O_16
REMARK    6  A    between atoms: O_16  and  C_17
REMARK    7  A    between atoms: O_18  and  C_19
REMARK                            x       y       z     vdW  Elec       q    Type
REMARK                         _______ _______ _______ _____ _____    ______ ____
ROOT
ATOM      8  C   UNL     1       6.124   4.979   0.000  0.00  0.00    -0.021 A 
ATOM      9  C   UNL     1       7.088   6.128   0.000  0.00  0.00    +0.051 A 
ATOM     10  C   UNL     1       8.566   5.867   0.000  0.00  0.00    +0.124 A 
ATOM     13  C   UNL     1       9.079   4.458   0.000  0.00  0.00    +0.091 A 
ATOM     14  C   UNL     1       8.115   3.309   0.000  0.00  0.00    +0.124 A 
ATOM     17  C   UNL     1       6.637   3.569   0.000  0.00  0.00    +0.051 A 
ENDROOT
BRANCH   8   5
ATOM      1  N   UNL     1       2.049   3.739   0.000  0.00  0.00    -0.305 NA
ATOM      2  C   UNL     1       0.750   2.989   0.000  0.00  0.00    +0.104 C 
ATOM      3  C   UNL     1       3.348   2.989   0.000  0.00  0.00    +0.086 C 
ATOM      4  C   UNL     1       4.647   3.739   0.000  0.00  0.00    +0.042 C 
ATOM      5  C   UNL     1       4.647   5.239   0.000  0.00  0.00    +0.085 C 
ATOM     18  C   UNL     1       3.348   5.989   0.000  0.00  0.00    +0.042 C 
ATOM     19  C   UNL     1       2.049   5.239   0.000  0.00  0.00    +0.086 C 
BRANCH   5   6
ATOM      6  C   UNL     1       5.160   6.649   0.000  0.00  0.00    +0.074 C 
ATOM      7  N   UNL     1       5.673   8.058   0.000  0.00  0.00    -0.196 NA
ENDBRANCH   5   6
ENDBRANCH   8   5
BRANCH  10  11
ATOM     11  O   UNL     1       9.530   7.016   0.000  0.00  0.00    -0.495 OA
ATOM     12  C   UNL     1      11.007   6.756   0.000  0.00  0.00    +0.277 C 
ENDBRANCH  10  11
BRANCH  14  15
ATOM     15  O   UNL     1       8.628   1.899   0.000  0.00  0.00    -0.495 OA
ATOM     16  C   UNL     1       7.663   0.750   0.000  0.00  0.00    +0.277 C 
ENDBRANCH  14  15
TORSDOF 4