REMARK  Name = 228150
REMARK  4 active torsions:
REMARK  status: ('A' for Active; 'I' for Inactive)
REMARK    1  A    between atoms: C_5  and  S_6
REMARK    2  A    between atoms: S_6  and  C_7
REMARK    3  A    between atoms: C_8  and  C_18
REMARK    4  A    between atoms: C_9  and  N_19
REMARK                            x       y       z     vdW  Elec       q    Type
REMARK                         _______ _______ _______ _____ _____    ______ ____
ROOT
ATOM      5  C   UNL     1       0.275  -8.524   0.000  0.00  0.00    +0.075 A 
ATOM      6  C   UNL     1       0.275 -10.025   0.000  0.00  0.00    +0.157 A 
ATOM      7  N   UNL     1       1.389 -11.028   0.000  0.00  0.00    -0.047 NA
ATOM      8  O   UNL     1       0.779 -12.399   0.000  0.00  0.00    -0.241 OA
ATOM      9  N   UNL     1      -0.713 -12.242   0.000  0.00  0.00    -0.042 NA
ATOM     10  C   UNL     1      -1.025 -10.775   0.000  0.00  0.00    +0.212 A 
ATOM     11  C   UNL     1      -2.324 -10.025   0.000  0.00  0.00    +0.304 A 
ATOM     15  C   UNL     1      -2.324  -8.524   0.000  0.00  0.00    +0.088 A 
ATOM     16  C   UNL     1      -1.025  -7.774   0.000  0.00  0.00    +0.026 A 
ENDROOT
BRANCH  11  12
ATOM     12  N   UNL     1      -3.623 -10.775   0.000  0.00  0.00    +0.082 N 
ATOM     13  O   UNL     1      -3.623 -12.275   0.000  0.00  0.00    +0.042 OA
ATOM     14  O   UNL     1      -4.922 -10.025   0.000  0.00  0.00    -0.576 OA
ENDBRANCH  11  12
BRANCH   5   4
ATOM      4  S   UNL     1       1.573  -7.774   0.000  0.00  0.00    +0.088 S 
ATOM     17  O   UNL     1       2.873  -8.524   0.000  0.00  0.00    -0.247 OA
BRANCH   4   3
ATOM      1  C   UNL     1       0.275  -4.024   0.000  0.00  0.00    +0.004 A 
ATOM      2  C   UNL     1       0.275  -5.524   0.000  0.00  0.00    +0.018 A 
ATOM      3  C   UNL     1       1.573  -6.274   0.000  0.00  0.00    +0.044 A 
ATOM     18  C   UNL     1       2.873  -5.524   0.000  0.00  0.00    +0.018 A 
ATOM     19  C   UNL     1       2.873  -4.024   0.000  0.00  0.00    +0.004 A 
ATOM     20  C   UNL     1       1.573  -3.275   0.000  0.00  0.00    -0.050 A 
ATOM     21  C   UNL     1       1.573  -1.775   0.000  0.00  0.00    +0.044 C 
ENDBRANCH   4   3
ENDBRANCH   5   4
TORSDOF 3