REMARK  Name = 211336
REMARK  7 active torsions:
REMARK  status: ('A' for Active; 'I' for Inactive)
REMARK    1  A    between atoms: O_1  and  C_5
REMARK    2  A    between atoms: O_1  and  C_12
REMARK    3  A    between atoms: C_6  and  N_9
REMARK    4  A    between atoms: C_12  and  C_13
REMARK    5  A    between atoms: C_13  and  C_14
REMARK    6  A    between atoms: C_14  and  N_15
REMARK    7  A    between atoms: C_16  and  C_18
REMARK                            x       y       z     vdW  Elec       q    Type
REMARK                         _______ _______ _______ _____ _____    ______ ____
ROOT
ATOM     10  C   UNL     1      -8.544  -1.500   0.000  0.00  0.00    +0.139 A 
ATOM     11  C   UNL     1      -8.544  -3.000   0.000  0.00  0.00    +0.089 A 
ATOM     12  C   UNL     1      -9.843  -3.750   0.000  0.00  0.00    +0.108 A 
ATOM     13  C   UNL     1     -11.142  -3.000   0.000  0.00  0.00    +0.275 A 
ATOM     17  C   UNL     1     -11.142  -1.500   0.000  0.00  0.00    +0.088 A 
ATOM     18 CL   UNL     1      -7.245  -3.750   0.000  0.00  0.00    -0.080 Cl
ATOM     19  C   UNL     1      -9.843  -0.750   0.000  0.00  0.00    +0.054 A 
ENDROOT
BRANCH  13  14
ATOM     14  N   UNL     1     -12.441  -3.750   0.000  0.00  0.00    +0.080 N 
ATOM     15  O   UNL     1     -12.441  -5.250   0.000  0.00  0.00    +0.041 OA
ATOM     16  O   UNL     1     -13.740  -3.000   0.000  0.00  0.00    -0.576 OA
ENDBRANCH  13  14
BRANCH  10   1
ATOM      1  O   UNL     1      -7.245  -0.750   0.000  0.00  0.00    -0.490 OA
BRANCH   1   2
ATOM      2  C   UNL     1      -5.946  -1.500   0.000  0.00  0.00    +0.230 C 
BRANCH   2   3
ATOM      3  C   UNL     1      -4.647  -0.750   0.000  0.00  0.00    +0.060 C 
BRANCH   3   4
ATOM      4  C   UNL     1      -3.348  -1.500   0.000  0.00  0.00    +0.107 C 
BRANCH   4   5
ATOM      5  N   UNL     1      -3.348  -3.000   0.000  0.00  0.00    -0.315 N 
ATOM      6  H   UNL     1      -4.201  -3.492   0.000  0.00  0.00    +0.149 HD
ATOM      7  C   UNL     1      -2.049  -3.750   0.000  0.00  0.00    +0.210 C 
ATOM      8  C   UNL     1      -2.049  -5.250   0.000  0.00  0.00    +0.109 C 
ATOM      9  O   UNL     1      -0.750  -3.000   0.000  0.00  0.00    -0.276 OA
ENDBRANCH   4   5
ENDBRANCH   3   4
ENDBRANCH   2   3
ENDBRANCH   1   2
ENDBRANCH  10   1
TORSDOF 6