REMARK  Name = 216621
REMARK  5 active torsions:
REMARK  status: ('A' for Active; 'I' for Inactive)
REMARK    1  A    between atoms: O_1  and  C_7
REMARK    2  A    between atoms: O_1  and  C_23
REMARK    3  A    between atoms: C_16  and  N_22
REMARK    4  A    between atoms: C_19  and  S_20
REMARK    5  A    between atoms: S_20  and  C_21
REMARK                            x       y       z     vdW  Elec       q    Type
REMARK                         _______ _______ _______ _____ _____    ______ ____
ROOT
ATOM      1  O   UNL     1      -9.868  -3.623   0.000  0.00  0.00    -0.447 OA
ENDROOT
BRANCH   1  14
ATOM     14  C   UNL     1      -8.569  -4.373   0.000  0.00  0.00    +0.178 C 
ATOM     15  C   UNL     1      -8.569  -5.873   0.000  0.00  0.00    +0.045 C 
ATOM     16  C   UNL     1      -7.270  -6.623   0.000  0.00  0.00    +0.004 C 
ATOM     17  C   UNL     1      -5.971  -5.873   0.000  0.00  0.00    +0.000 C 
ATOM     18  C   UNL     1      -4.910  -6.933   0.000  0.00  0.00    +0.000 C 
ATOM     19  C   UNL     1      -3.410  -6.933   0.000  0.00  0.00    +0.000 C 
ATOM     20  C   UNL     1      -2.350  -5.873   0.000  0.00  0.00    -0.000 C 
ATOM     21  C   UNL     1      -2.350  -4.373   0.000  0.00  0.00    +0.000 C 
ATOM     22  C   UNL     1      -3.411  -3.312   0.000  0.00  0.00    +0.000 C 
ATOM     23  C   UNL     1      -4.911  -3.312   0.000  0.00  0.00    +0.000 C 
ATOM     24  C   UNL     1      -5.971  -4.373   0.000  0.00  0.00    +0.004 C 
ATOM     25  C   UNL     1      -7.270  -3.623   0.000  0.00  0.00    +0.045 C 
ENDBRANCH   1  14
BRANCH   1   2
ATOM      2  C   UNL     1     -11.017  -4.587   0.000  0.00  0.00    +0.405 C 
ATOM      3  O   UNL     1     -10.757  -6.064   0.000  0.00  0.00    -0.226 OA
ATOM      4  N   UNL     1     -12.427  -4.074   0.000  0.00  0.00    -0.251 N 
ATOM      5  H   UNL     1     -13.181  -4.707   0.000  0.00  0.00    +0.158 HD
BRANCH   4   6
ATOM      6  C   UNL     1     -12.688  -2.597   0.000  0.00  0.00    +0.037 A 
ATOM      7  C   UNL     1     -14.097  -2.084   0.000  0.00  0.00    +0.038 A 
ATOM      8  C   UNL     1     -14.358  -0.607   0.000  0.00  0.00    +0.009 A 
ATOM     11  C   UNL     1     -13.209   0.358   0.000  0.00  0.00    +0.015 A 
ATOM     12  C   UNL     1     -11.799  -0.155   0.000  0.00  0.00    +0.003 A 
ATOM     13  C   UNL     1     -11.538  -1.633   0.000  0.00  0.00    +0.023 A 
BRANCH   8   9
ATOM      9  S   UNL     1     -15.767  -0.094   0.000  0.00  0.00    -0.129 S 
ATOM     10  C   UNL     1     -16.916  -1.058   0.000  0.00  0.00    +0.090 C 
ENDBRANCH   8   9
ENDBRANCH   4   6
ENDBRANCH   1   2
TORSDOF 4