REMARK  Name = 227383
REMARK  2 active torsions:
REMARK  status: ('A' for Active; 'I' for Inactive)
REMARK    1  A    between atoms: N_11  and  S_12
REMARK    2  A    between atoms: S_12  and  C_15
REMARK                            x       y       z     vdW  Elec       q    Type
REMARK                         _______ _______ _______ _____ _____    ______ ____
ROOT
ATOM      1  C   UNL     1       0.750   4.140   0.000  0.00  0.00    +0.002 A 
ATOM      2  C   UNL     1       0.750   2.640   0.000  0.00  0.00    +0.002 A 
ATOM      3  C   UNL     1       2.049   1.890   0.000  0.00  0.00    +0.028 A 
ATOM      4  C   UNL     1       3.348   2.640   0.000  0.00  0.00    +0.067 A 
ATOM      5  N   UNL     1       4.775   2.177   0.000  0.00  0.00    -0.325 N 
ATOM      6  H   UNL     1       5.238   0.750   0.000  0.00  0.00    +0.169 HD
ATOM      7  C   UNL     1       5.656   3.390   0.000  0.00  0.00    +0.213 A 
ATOM      8  N   UNL     1       7.156   3.390   0.000  0.00  0.00    -0.190 N 
ATOM      9  H   UNL     1       7.649   2.538   0.000  0.00  0.00    +0.176 HD
ATOM     14  N   UNL     1       4.775   4.604   0.000  0.00  0.00    -0.213 NA
ATOM     15  C   UNL     1       3.348   4.140   0.000  0.00  0.00    +0.091 A 
ATOM     16  C   UNL     1       2.049   4.890   0.000  0.00  0.00    +0.030 A 
ENDROOT
BRANCH   8  10
ATOM     10  S   UNL     1       7.906   4.689   0.000  0.00  0.00    +0.042 S 
ATOM     11  C   UNL     1       8.656   5.988   0.000  0.00  0.00    +0.218 C 
ATOM     12  O   UNL     1       6.607   5.439   0.000  0.00  0.00    -0.155 OA
ATOM     13  O   UNL     1       9.205   3.939   0.000  0.00  0.00    -0.155 OA
ENDBRANCH   8  10
TORSDOF 1