REMARK  Name = 21683
REMARK  5 active torsions:
REMARK  status: ('A' for Active; 'I' for Inactive)
REMARK    1  A    between atoms: N_1  and  C_16
REMARK    2  A    between atoms: N_2  and  C_6
REMARK    3  A    between atoms: N_4  and  C_9
REMARK    4  A    between atoms: C_5  and  N_22
REMARK    5  A    between atoms: C_18  and  C_20
REMARK                            x       y       z     vdW  Elec       q    Type
REMARK                         _______ _______ _______ _____ _____    ______ ____
ROOT
ATOM      3  C   UNL     1       5.830  -3.259   0.000  0.00  0.00    +0.166 A 
ATOM      4  C   UNL     1       5.080  -4.558   0.000  0.00  0.00    +0.168 A 
ATOM      5  N   UNL     1       3.588  -4.715   0.000  0.00  0.00    -0.340 N 
ATOM      6  H   UNL     1       3.188  -5.614   0.000  0.00  0.00    +0.144 HD
ATOM      7  H   UNL     1       3.010  -3.918   0.000  0.00  0.00    +0.144 HD
ATOM      8  N   UNL     1       6.084  -5.673   0.000  0.00  0.00    -0.148 NA
ATOM      9  N   UNL     1       7.454  -5.063   0.000  0.00  0.00    -0.215 N 
ATOM     16  C   UNL     1       7.297  -3.571   0.000  0.00  0.00    +0.149 A 
ENDROOT
BRANCH   9  10
ATOM     10  C   UNL     1       8.753  -5.813   0.000  0.00  0.00    +0.068 A 
ATOM     11  C   UNL     1       8.753  -7.313   0.000  0.00  0.00    +0.028 A 
ATOM     12  C   UNL     1      10.052  -8.063   0.000  0.00  0.00    +0.002 A 
ATOM     13  C   UNL     1      11.351  -7.313   0.000  0.00  0.00    +0.000 A 
ATOM     14  C   UNL     1      11.351  -5.813   0.000  0.00  0.00    +0.002 A 
ATOM     15  C   UNL     1      10.052  -5.063   0.000  0.00  0.00    +0.028 A 
ENDBRANCH   9  10
BRANCH  16  17
ATOM     17  N   UNL     1       8.412  -2.567   0.000  0.00  0.00    -0.341 N 
ATOM     18  H   UNL     1       8.207  -1.604   0.000  0.00  0.00    +0.144 HD
ATOM     19  H   UNL     1       9.348  -2.871   0.000  0.00  0.00    +0.144 HD
ENDBRANCH  16  17
BRANCH   3   2
ATOM      1  N   UNL     1       6.101  -0.675   0.000  0.00  0.00    -0.149 NA
ATOM      2  N   UNL     1       5.220  -1.889   0.000  0.00  0.00    -0.142 NA
BRANCH   1  20
ATOM     20  C   UNL     1       5.491   0.695   0.000  0.00  0.00    +0.086 A 
ATOM     21  C   UNL     1       4.000   0.852   0.000  0.00  0.00    +0.030 A 
ATOM     22  C   UNL     1       3.390   2.222   0.000  0.00  0.00    +0.005 A 
ATOM     23  C   UNL     1       4.271   3.436   0.000  0.00  0.00    -0.050 A 
ATOM     24  C   UNL     1       3.661   4.806   0.000  0.00  0.00    +0.044 C 
ATOM     25  C   UNL     1       5.763   3.279   0.000  0.00  0.00    +0.005 A 
ATOM     26  C   UNL     1       6.373   1.909   0.000  0.00  0.00    +0.030 A 
ENDBRANCH   1  20
ENDBRANCH   3   2
TORSDOF 4