REMARK  Name = 213708
REMARK  2 active torsions:
REMARK  status: ('A' for Active; 'I' for Inactive)
REMARK    1  A    between atoms: C_7  and  N_14
REMARK    2  A    between atoms: C_13  and  C_18
REMARK                            x       y       z     vdW  Elec       q    Type
REMARK                         _______ _______ _______ _____ _____    ______ ____
ROOT
ATOM      9  N   UNL     1      -1.009  -9.247   0.000  0.00  0.00    -0.267 N 
ATOM     10  H   UNL     1      -0.156  -9.740   0.000  0.00  0.00    +0.156 HD
ATOM     11  C   UNL     1      -1.009  -7.747   0.000  0.00  0.00    +0.309 C 
ATOM     12  N   UNL     1       0.290  -6.997   0.000  0.00  0.00    -0.251 N 
ATOM     13  H   UNL     1       1.143  -7.490   0.000  0.00  0.00    +0.158 HD
ATOM     14  C   UNL     1       0.290  -5.497   0.000  0.00  0.00    +0.169 A 
ATOM     15  C   UNL     1       1.504  -4.616   0.000  0.00  0.00    +0.091 A 
ATOM     16  C   UNL     1       1.040  -3.189   0.000  0.00  0.00    +0.136 A 
ATOM     17  C   UNL     1       1.922  -1.976   0.000  0.00  0.00    +0.089 C 
ATOM     18  O   UNL     1      -0.460  -3.189   0.000  0.00  0.00    -0.358 OA
ATOM     19  N   UNL     1      -0.923  -4.616   0.000  0.00  0.00    -0.063 NA
ATOM     20  O   UNL     1      -2.308  -6.997   0.000  0.00  0.00    -0.252 OA
ENDROOT
BRANCH   9   8
ATOM      1  F   UNL     1      -3.607  -7.747   0.000  0.00  0.00    -0.204 F 
ATOM      2  C   UNL     1      -3.607  -9.247   0.000  0.00  0.00    +0.145 A 
ATOM      3  C   UNL     1      -4.906  -9.997   0.000  0.00  0.00    +0.043 A 
ATOM      4  C   UNL     1      -4.906 -11.497   0.000  0.00  0.00    +0.041 A 
ATOM      5  C   UNL     1      -3.607 -12.247   0.000  0.00  0.00    +0.125 A 
ATOM      6  C   UNL     1      -2.308 -11.497   0.000  0.00  0.00    +0.064 A 
ATOM      7  F   UNL     1      -3.607 -13.747   0.000  0.00  0.00    -0.205 F 
ATOM      8  C   UNL     1      -2.308  -9.997   0.000  0.00  0.00    +0.073 A 
ENDBRANCH   9   8
TORSDOF 1