REMARK  Name = 216618
REMARK  4 active torsions:
REMARK  status: ('A' for Active; 'I' for Inactive)
REMARK    1  A    between atoms: N_1  and  C_13
REMARK    2  A    between atoms: C_6  and  N_16
REMARK    3  A    between atoms: C_10  and  S_17
REMARK    4  A    between atoms: S_17  and  C_18
REMARK                            x       y       z     vdW  Elec       q    Type
REMARK                         _______ _______ _______ _____ _____    ______ ____
ROOT
ATOM      1  N   UNL     1       2.973   0.649   0.000  0.00  0.00    -0.302 NA
ATOM      2  C   UNL     1       1.674   1.400   0.000  0.00  0.00    +0.105 C 
ATOM      3  C   UNL     1       2.973  -0.851   0.000  0.00  0.00    +0.103 C 
ATOM      4  C   UNL     1       4.272  -1.601   0.000  0.00  0.00    +0.124 C 
ATOM      5  N   UNL     1       5.571  -0.851   0.000  0.00  0.00    -0.283 N 
ATOM      6  C   UNL     1       6.870  -1.601   0.000  0.00  0.00    +0.307 C 
ATOM      7  N   UNL     1       8.169  -0.851   0.000  0.00  0.00    -0.269 N 
ATOM      8  H   UNL     1       8.169   0.134   0.000  0.00  0.00    +0.156 HD
ATOM     17  O   UNL     1       6.870  -3.100   0.000  0.00  0.00    -0.252 OA
ATOM     18  C   UNL     1       5.571   0.649   0.000  0.00  0.00    +0.124 C 
ATOM     19  C   UNL     1       4.272   1.400   0.000  0.00  0.00    +0.103 C 
ENDROOT
BRANCH   7   9
ATOM      9  C   UNL     1       9.468  -1.601   0.000  0.00  0.00    +0.036 A 
ATOM     10  C   UNL     1       9.468  -3.100   0.000  0.00  0.00    +0.038 A 
ATOM     11  C   UNL     1      10.767  -3.850   0.000  0.00  0.00    +0.009 A 
ATOM     14  C   UNL     1      12.066  -3.100   0.000  0.00  0.00    +0.015 A 
ATOM     15  C   UNL     1      12.066  -1.600   0.000  0.00  0.00    +0.003 A 
ATOM     16  C   UNL     1      10.767  -0.850   0.000  0.00  0.00    +0.023 A 
BRANCH  11  12
ATOM     12  S   UNL     1      10.767  -5.350   0.000  0.00  0.00    -0.129 S 
ATOM     13  C   UNL     1      12.066  -6.100   0.000  0.00  0.00    +0.090 C 
ENDBRANCH  11  12
ENDBRANCH   7   9
TORSDOF 2