REMARK  Name = 216633
REMARK  5 active torsions:
REMARK  status: ('A' for Active; 'I' for Inactive)
REMARK    1  A    between atoms: N_4  and  C_26
REMARK    2  A    between atoms: N_5  and  C_16
REMARK    3  A    between atoms: C_7  and  N_21
REMARK    4  A    between atoms: C_13  and  N_24
REMARK    5  A    between atoms: C_14  and  C_25
REMARK                            x       y       z     vdW  Elec       q    Type
REMARK                         _______ _______ _______ _____ _____    ______ ____
ROOT
ATOM      9  N   UNL     1      -2.896   3.450   0.000  0.00  0.00    -0.267 N 
ATOM     10  H   UNL     1      -2.043   2.958   0.000  0.00  0.00    +0.156 HD
ATOM     11  C   UNL     1      -2.896   4.950   0.000  0.00  0.00    +0.308 C 
ATOM     12  N   UNL     1      -4.195   5.700   0.000  0.00  0.00    -0.263 N 
ATOM     13  H   UNL     1      -5.048   5.208   0.000  0.00  0.00    +0.157 HD
ATOM     28  O   UNL     1      -1.597   5.700   0.000  0.00  0.00    -0.252 OA
ENDROOT
BRANCH   9   8
ATOM      1 CL   UNL     1      -5.494   4.950   0.000  0.00  0.00    -0.082 Cl
ATOM      2  C   UNL     1      -5.494   3.450   0.000  0.00  0.00    +0.064 A 
ATOM      3  C   UNL     1      -6.793   2.700   0.000  0.00  0.00    +0.022 A 
ATOM      4  C   UNL     1      -6.793   1.200   0.000  0.00  0.00    +0.003 A 
ATOM      5  C   UNL     1      -5.494   0.450   0.000  0.00  0.00    +0.022 A 
ATOM      6  C   UNL     1      -4.195   1.200   0.000  0.00  0.00    +0.064 A 
ATOM      7 CL   UNL     1      -2.896   0.450   0.000  0.00  0.00    -0.082 Cl
ATOM      8  C   UNL     1      -4.195   2.700   0.000  0.00  0.00    +0.072 A 
ENDBRANCH   9   8
BRANCH  12  14
ATOM     14  C   UNL     1      -4.195   7.200   0.000  0.00  0.00    +0.122 A 
ATOM     15  C   UNL     1      -2.981   8.081   0.000  0.00  0.00    +0.059 A 
ATOM     16  C   UNL     1      -1.555   7.618   0.000  0.00  0.00    +0.067 C 
ATOM     17  N   UNL     1      -3.445   9.508   0.000  0.00  0.00    -0.282 N 
ATOM     18  C   UNL     1      -2.563  10.722   0.000  0.00  0.00    +0.171 C 
ATOM     19  N   UNL     1      -4.945   9.508   0.000  0.00  0.00    -0.216 N 
ATOM     26  C   UNL     1      -5.408   8.081   0.000  0.00  0.00    +0.293 A 
ATOM     27  O   UNL     1      -6.835   7.618   0.000  0.00  0.00    -0.264 OA
BRANCH  19  20
ATOM     20  C   UNL     1      -5.827  10.722   0.000  0.00  0.00    +0.067 A 
ATOM     21  C   UNL     1      -5.216  12.092   0.000  0.00  0.00    +0.028 A 
ATOM     22  C   UNL     1      -6.098  13.305   0.000  0.00  0.00    +0.002 A 
ATOM     23  C   UNL     1      -7.590  13.149   0.000  0.00  0.00    +0.000 A 
ATOM     24  C   UNL     1      -8.200  11.778   0.000  0.00  0.00    +0.002 A 
ATOM     25  C   UNL     1      -7.318  10.565   0.000  0.00  0.00    +0.028 A 
ENDBRANCH  19  20
ENDBRANCH  12  14
TORSDOF 3