REMARK  Name = 227309
REMARK  4 active torsions:
REMARK  status: ('A' for Active; 'I' for Inactive)
REMARK    1  A    between atoms: C_4  and  O_11
REMARK    2  A    between atoms: C_9  and  C_12
REMARK    3  A    between atoms: C_10  and  C_13
REMARK    4  A    between atoms: C_13  and  O_14
REMARK                            x       y       z     vdW  Elec       q    Type
REMARK                         _______ _______ _______ _____ _____    ______ ____
ROOT
ATOM      1  C   UNL     1       0.750   4.500   0.000  0.00  0.00    +0.004 A 
ATOM      2  C   UNL     1       0.750   3.000   0.000  0.00  0.00    +0.047 A 
ATOM      3  C   UNL     1       2.049   2.250   0.000  0.00  0.00    +0.143 A 
ATOM      6  C   UNL     1       3.348   3.000   0.000  0.00  0.00    +0.113 A 
ATOM      7  N   UNL     1       4.647   2.250   0.000  0.00  0.00    -0.248 NA
ATOM      8  C   UNL     1       5.946   3.000   0.000  0.00  0.00    +0.044 A 
ATOM      9  C   UNL     1       7.245   2.250   0.000  0.00  0.00    +0.066 C 
ATOM     10  C   UNL     1       5.946   4.500   0.000  0.00  0.00    -0.001 A 
ATOM     14  C   UNL     1       4.647   5.250   0.000  0.00  0.00    +0.017 A 
ATOM     15  C   UNL     1       3.348   4.500   0.000  0.00  0.00    +0.004 A 
ATOM     16  C   UNL     1       2.049   5.250   0.000  0.00  0.00    +0.010 A 
ENDROOT
BRANCH   3   4
ATOM      4  O   UNL     1       2.049   0.750   0.000  0.00  0.00    -0.505 OA
ATOM      5  H   UNL     1       1.238   0.281   0.000  0.00  0.00    +0.292 HD
ENDBRANCH   3   4
BRANCH  10  11
ATOM     11  C   UNL     1       7.245   5.250   0.000  0.00  0.00    +0.192 C 
BRANCH  11  12
ATOM     12  O   UNL     1       8.544   4.500   0.000  0.00  0.00    -0.390 OA
ATOM     13  H   UNL     1       8.544   3.530   0.000  0.00  0.00    +0.210 HD
ENDBRANCH  11  12
ENDBRANCH  10  11
TORSDOF 3