REMARK  Name = 215718
REMARK  5 active torsions:
REMARK  status: ('A' for Active; 'I' for Inactive)
REMARK    1  A    between atoms: C_7  and  C_19
REMARK    2  A    between atoms: C_8  and  N_24
REMARK    3  A    between atoms: C_16  and  O_18
REMARK    4  A    between atoms: N_21  and  C_22
REMARK    5  A    between atoms: C_22  and  N_24
REMARK                            x       y       z     vdW  Elec       q    Type
REMARK                         _______ _______ _______ _____ _____    ______ ____
ROOT
ATOM      9  N   UNL     1       2.873   7.024   0.000  0.00  0.00    -0.296 N 
ATOM     10  H   UNL     1       2.020   7.517   0.000  0.00  0.00    +0.154 HD
ENDROOT
BRANCH   9  11
ATOM     11  C   UNL     1       2.873   5.524   0.000  0.00  0.00    +0.040 A 
ATOM     12  C   UNL     1       1.574   4.774   0.000  0.00  0.00    +0.007 A 
ATOM     13  C   UNL     1       1.574   3.275   0.000  0.00  0.00    +0.025 A 
ATOM     14  C   UNL     1       2.873   2.525   0.000  0.00  0.00    +0.012 A 
ATOM     15  C   UNL     1       4.172   3.275   0.000  0.00  0.00    +0.003 A 
ATOM     16  C   UNL     1       0.275   2.525   0.000  0.00  0.00    +0.125 A 
ATOM     19  C   UNL     1      -1.025   3.275   0.000  0.00  0.00    +0.046 A 
ATOM     20  C   UNL     1      -1.025   4.774   0.000  0.00  0.00    +0.004 A 
ATOM     21  C   UNL     1       0.275   5.524   0.000  0.00  0.00    +0.010 A 
ATOM     22  C   UNL     1       4.172   4.774   0.000  0.00  0.00    +0.024 A 
BRANCH  16  17
ATOM     17  O   UNL     1       0.275   1.025   0.000  0.00  0.00    -0.506 OA
ATOM     18  H   UNL     1      -0.537   0.556   0.000  0.00  0.00    +0.292 HD
ENDBRANCH  16  17
ENDBRANCH   9  11
BRANCH   9   8
ATOM      8  C   UNL     1       4.172   7.774   0.000  0.00  0.00    +0.141 C 
ATOM     23  S   UNL     1       4.172   9.274   0.000  0.00  0.00    -0.018 S 
BRANCH   8   6
ATOM      5  C   UNL     1       6.620   7.989   0.000  0.00  0.00    +0.250 C 
ATOM      6  N   UNL     1       5.471   7.024   0.000  0.00  0.00    -0.264 N 
ATOM      7  H   UNL     1       5.557   6.044   0.000  0.00  0.00    +0.157 HD
ATOM     24  O   UNL     1       6.359   9.466   0.000  0.00  0.00    -0.270 OA
BRANCH   5   4
ATOM      1 BR   UNL     1      11.737   8.891   0.000  0.00  0.00    -0.050 Br
ATOM      2  C   UNL     1      10.588   7.927   0.000  0.00  0.00    +0.019 A 
ATOM      3  C   UNL     1       9.178   8.440   0.000  0.00  0.00    +0.028 A 
ATOM      4  C   UNL     1       8.029   7.476   0.000  0.00  0.00    +0.038 A 
ATOM     25  C   UNL     1       8.290   5.998   0.000  0.00  0.00    +0.013 A 
ATOM     26  C   UNL     1       9.699   5.485   0.000  0.00  0.00    +0.002 A 
ATOM     27  C   UNL     1      10.848   6.450   0.000  0.00  0.00    +0.015 A 
ENDBRANCH   5   4
ENDBRANCH   8   6
ENDBRANCH   9   8
TORSDOF 5