REMARK  Name = 217913
REMARK  6 active torsions:
REMARK  status: ('A' for Active; 'I' for Inactive)
REMARK    1  A    between atoms: C_12  and  S_13
REMARK    2  A    between atoms: S_13  and  C_17
REMARK    3  A    between atoms: C_14  and  O_16
REMARK    4  A    between atoms: C_14  and  C_17
REMARK    5  A    between atoms: O_16  and  C_18
REMARK    6  A    between atoms: C_18  and  C_19
REMARK                            x       y       z     vdW  Elec       q    Type
REMARK                         _______ _______ _______ _____ _____    ______ ____
ROOT
ATOM      1 CL   UNL     1      -7.605  -5.370   0.000  0.00  0.00    -0.059 Cl
ATOM      2  C   UNL     1      -6.306  -6.120   0.000  0.00  0.00    +0.168 A 
ATOM      3  C   UNL     1      -6.306  -7.620   0.000  0.00  0.00    +0.168 A 
ATOM      4  N   UNL     1      -5.007  -8.370   0.000  0.00  0.00    -0.211 NA
ATOM      5  C   UNL     1      -3.708  -7.620   0.000  0.00  0.00    +0.179 A 
ATOM      6  N   UNL     1      -2.281  -8.084   0.000  0.00  0.00    -0.316 N 
ATOM      7  H   UNL     1      -1.818  -9.510   0.000  0.00  0.00    +0.169 HD
ATOM      8  C   UNL     1      -1.400  -6.870   0.000  0.00  0.00    +0.171 A 
ATOM     16  N   UNL     1      -2.281  -5.657   0.000  0.00  0.00    -0.201 NA
ATOM     17  C   UNL     1      -3.708  -6.120   0.000  0.00  0.00    +0.200 A 
ATOM     18 CL   UNL     1      -7.605  -8.370   0.000  0.00  0.00    -0.059 Cl
ATOM     19  N   UNL     1      -5.007  -5.370   0.000  0.00  0.00    -0.210 NA
ENDROOT
BRANCH   8   9
ATOM      9  S   UNL     1       0.101  -6.870   0.000  0.00  0.00    -0.076 S 
BRANCH   9  10
ATOM     10  C   UNL     1       0.851  -5.571   0.000  0.00  0.00    +0.197 C 
BRANCH  10  11
ATOM     11  C   UNL     1       0.101  -4.272   0.000  0.00  0.00    +0.317 C 
ATOM     15  O   UNL     1      -1.400  -4.272   0.000  0.00  0.00    -0.250 OA
BRANCH  11  12
ATOM     12  O   UNL     1       0.851  -2.973   0.000  0.00  0.00    -0.464 OA
BRANCH  12  13
ATOM     13  C   UNL     1       0.101  -1.674   0.000  0.00  0.00    +0.229 C 
ATOM     14  C   UNL     1      -1.400  -1.674   0.000  0.00  0.00    +0.048 C 
ENDBRANCH  12  13
ENDBRANCH  11  12
ENDBRANCH  10  11
ENDBRANCH   9  10
ENDBRANCH   8   9
TORSDOF 5