REMARK  Name = 378717
REMARK  9 active torsions:
REMARK  status: ('A' for Active; 'I' for Inactive)
REMARK    1  A    between atoms: C_1  and  C_18
REMARK    2  A    between atoms: C_6  and  C_7
REMARK    3  A    between atoms: C_7  and  C_9
REMARK    4  A    between atoms: N_11  and  C_19
REMARK    5  A    between atoms: C_13  and  C_20
REMARK    6  A    between atoms: C_14  and  S_15
REMARK    7  A    between atoms: C_14  and  S_17
REMARK    8  A    between atoms: S_15  and  C_21
REMARK    9  A    between atoms: S_17  and  C_22
REMARK                            x       y       z     vdW  Elec       q    Type
REMARK                         _______ _______ _______ _____ _____    ______ ____
ROOT
ATOM      7  C   UNL     1       7.774  -1.573   0.000  0.00  0.00    +0.090 A 
ATOM      8  N   UNL     1       7.164  -2.944   0.000  0.00  0.00    -0.341 N 
ATOM      9  C   UNL     1       5.697  -3.256   0.000  0.00  0.00    +0.149 C 
ATOM     10  C   UNL     1       8.279  -3.947   0.000  0.00  0.00    +0.044 A 
ATOM     18  C   UNL     1       9.578  -3.197   0.000  0.00  0.00    +0.028 A 
ATOM     19  C   UNL     1       9.266  -1.730   0.000  0.00  0.00    +0.032 A 
ENDROOT
BRANCH   7   6
ATOM      6  C   UNL     1       7.024  -0.275   0.000  0.00  0.00    +0.209 C 
ATOM     20  O   UNL     1       7.774   1.025   0.000  0.00  0.00    -0.285 OA
BRANCH   6   5
ATOM      1  C   UNL     1       2.525  -0.275   0.000  0.00  0.00    -0.050 A 
ATOM      2  C   UNL     1       1.025  -0.275   0.000  0.00  0.00    +0.044 C 
ATOM      3  C   UNL     1       3.275  -1.574   0.000  0.00  0.00    +0.004 A 
ATOM      4  C   UNL     1       4.774  -1.573   0.000  0.00  0.00    +0.012 A 
ATOM      5  C   UNL     1       5.524  -0.275   0.000  0.00  0.00    +0.024 A 
ATOM     21  C   UNL     1       4.774   1.025   0.000  0.00  0.00    +0.012 A 
ATOM     22  C   UNL     1       3.275   1.025   0.000  0.00  0.00    +0.004 A 
ENDBRANCH   6   5
ENDBRANCH   7   6
BRANCH  10  11
ATOM     11  C   UNL     1       8.122  -5.439   0.000  0.00  0.00    +0.049 C 
ATOM     12  C   UNL     1       9.336  -6.321   0.000  0.00  0.00    +0.073 C 
BRANCH  12  13
ATOM     13  S   UNL     1       9.179  -7.813   0.000  0.00  0.00    +0.057 S 
ATOM     14  C   UNL     1      10.393  -8.694   0.000  0.00  0.00    +0.127 C 
ATOM     15  O   UNL     1       7.809  -8.423   0.000  0.00  0.00    -0.252 OA
ENDBRANCH  12  13
BRANCH  12  16
ATOM     16  S   UNL     1      10.706  -5.711   0.000  0.00  0.00    -0.119 S 
ATOM     17  C   UNL     1      11.920  -6.593   0.000  0.00  0.00    +0.090 C 
ENDBRANCH  12  16
ENDBRANCH  10  11
TORSDOF 5