REMARK  Name = 39938
REMARK  2 active torsions:
REMARK  status: ('A' for Active; 'I' for Inactive)
REMARK    1  A    between atoms: C_17  and  C_18
REMARK    2  A    between atoms: C_18  and  O_20
REMARK                            x       y       z     vdW  Elec       q    Type
REMARK                         _______ _______ _______ _____ _____    ______ ____
ROOT
ATOM      1  O   UNL     1       2.652   3.712   0.000  0.00  0.00    -0.287 OA
ATOM      2  C   UNL     1       2.263   5.161   0.000  0.00  0.00    +0.195 C 
ATOM      3  C   UNL     1       0.815   5.549   0.000  0.00  0.00    +0.045 A 
ATOM      4  C   UNL     1      -0.246   4.489   0.000  0.00  0.00    +0.070 A 
ATOM      9  C   UNL     1      -1.695   4.877   0.000  0.00  0.00    +0.016 A 
ATOM     10  C   UNL     1      -2.083   6.326   0.000  0.00  0.00    +0.001 A 
ATOM     11  C   UNL     1      -1.023   7.387   0.000  0.00  0.00    +0.011 A 
ATOM     12  C   UNL     1       0.426   6.998   0.000  0.00  0.00    +0.013 A 
ATOM     13  C   UNL     1       1.487   8.059   0.000  0.00  0.00    +0.089 A 
ATOM     14  C   UNL     1       2.936   7.671   0.000  0.00  0.00    +0.028 A 
ATOM     15  C   UNL     1       3.997   8.731   0.000  0.00  0.00    +0.041 A 
ATOM     16  C   UNL     1       5.445   8.343   0.000  0.00  0.00    +0.017 A 
ATOM     17  C   UNL     1       5.834   6.894   0.000  0.00  0.00    +0.002 A 
ATOM     18  C   UNL     1       4.773   5.834   0.000  0.00  0.00    +0.012 A 
ATOM     19  S   UNL     1       2.936   9.947   0.000  0.00  0.00    +0.012 S 
ATOM     20  N   UNL     1       1.487   9.559   0.000  0.00  0.00    -0.209 NA
ATOM     21  C   UNL     1       3.324   6.222   0.000  0.00  0.00    +0.033 A 
ENDROOT
BRANCH   4   5
ATOM      5  C   UNL     1       0.142   3.040   0.000  0.00  0.00    +0.338 C 
ATOM      8  O   UNL     1      -0.919   1.979   0.000  0.00  0.00    -0.245 OA
BRANCH   5   6
ATOM      6  O   UNL     1       1.591   2.652   0.000  0.00  0.00    -0.477 OA
ATOM      7  H   UNL     1       1.833   1.747   0.000  0.00  0.00    +0.295 HD
ENDBRANCH   5   6
ENDBRANCH   4   5
TORSDOF 2