REMARK  Name = 319029
REMARK  9 active torsions:
REMARK  status: ('A' for Active; 'I' for Inactive)
REMARK    1  A    between atoms: C_6  and  C_15
REMARK    2  A    between atoms: C_6  and  N_17
REMARK    3  A    between atoms: C_7  and  C_19
REMARK    4  A    between atoms: C_10  and  O_12
REMARK    5  A    between atoms: O_12  and  C_20
REMARK    6  A    between atoms: C_13  and  O_14
REMARK    7  A    between atoms: O_14  and  C_21
REMARK    8  A    between atoms: N_17  and  C_18
REMARK    9  A    between atoms: C_18  and  C_19
REMARK                            x       y       z     vdW  Elec       q    Type
REMARK                         _______ _______ _______ _____ _____    ______ ____
ROOT
ATOM      7  C   UNL     1      -1.197  -1.726   0.000  0.00  0.00    +0.087 C 
ENDROOT
BRANCH   7   5
ATOM      5  N   UNL     1      -2.697  -1.752   0.000  0.00  0.00    -0.299 NA
ATOM      6  H   UNL     1      -3.191  -2.644   0.000  0.00  0.00    +0.123 HD
BRANCH   5   4
ATOM      1  C   UNL     1      -6.306   0.510   0.000  0.00  0.00    +0.000 C 
ATOM      2  C   UNL     1      -6.020  -0.962   0.000  0.00  0.00    +0.003 C 
ATOM      3  C   UNL     1      -4.601  -1.451   0.000  0.00  0.00    +0.037 C 
ATOM      4  C   UNL     1      -3.470  -0.466   0.000  0.00  0.00    +0.107 C 
ATOM     21  C   UNL     1      -3.756   1.006   0.000  0.00  0.00    +0.037 C 
ATOM     22  C   UNL     1      -5.174   1.494   0.000  0.00  0.00    +0.003 C 
BRANCH   4  19
ATOM     19  C   UNL     1      -2.069   0.071   0.000  0.00  0.00    +0.085 C 
ATOM     20  N   UNL     1      -0.669   0.609   0.000  0.00  0.00    -0.195 NA
ENDBRANCH   4  19
ENDBRANCH   5   4
ENDBRANCH   7   5
BRANCH   7   8
ATOM      8  C   UNL     1      -0.470  -0.414   0.000  0.00  0.00    +0.050 C 
BRANCH   8   9
ATOM      9  C   UNL     1       1.030  -0.387   0.000  0.00  0.00    -0.042 A 
ATOM     10  C   UNL     1       1.802  -1.673   0.000  0.00  0.00    +0.007 A 
ATOM     11  C   UNL     1       3.302  -1.647   0.000  0.00  0.00    +0.049 A 
ATOM     12  C   UNL     1       4.029  -0.335   0.000  0.00  0.00    +0.161 A 
ATOM     15  C   UNL     1       3.257   0.951   0.000  0.00  0.00    +0.162 A 
ATOM     18  C   UNL     1       1.757   0.925   0.000  0.00  0.00    +0.053 A 
BRANCH  12  13
ATOM     13  O   UNL     1       5.529  -0.309   0.000  0.00  0.00    -0.491 OA
ATOM     14  C   UNL     1       6.256   1.004   0.000  0.00  0.00    +0.277 C 
ENDBRANCH  12  13
BRANCH  15  16
ATOM     16  O   UNL     1       3.984   2.263   0.000  0.00  0.00    -0.491 OA
ATOM     17  C   UNL     1       5.484   2.289   0.000  0.00  0.00    +0.277 C 
ENDBRANCH  15  16
ENDBRANCH   8   9
ENDBRANCH   7   8
TORSDOF 7