REMARK  Name = 379555
REMARK  5 active torsions:
REMARK  status: ('A' for Active; 'I' for Inactive)
REMARK    1  A    between atoms: C_5  and  O_22
REMARK    2  A    between atoms: C_6  and  C_8
REMARK    3  A    between atoms: C_13  and  N_25
REMARK    4  A    between atoms: C_14  and  C_23
REMARK    5  A    between atoms: C_15  and  N_25
REMARK                            x       y       z     vdW  Elec       q    Type
REMARK                         _______ _______ _______ _____ _____    ______ ____
ROOT
ATOM      5  C   UNL     1       1.626   7.805   0.000  0.00  0.00    +0.171 C 
ATOM      6  N   UNL     1       1.626   6.305   0.000  0.00  0.00    -0.294 N 
ATOM      7  C   UNL     1       2.925   5.555   0.000  0.00  0.00    +0.258 C 
ATOM      8  O   UNL     1       2.925   4.055   0.000  0.00  0.00    -0.269 OA
ATOM      9  C   UNL     1       4.224   6.305   0.000  0.00  0.00    +0.141 C 
ATOM     12  C   UNL     1       4.224   7.805   0.000  0.00  0.00    +0.090 C 
ATOM     22  H   UNL     1       0.327   5.555   0.000  0.00  0.00    +0.150 HD
ATOM     23  S   UNL     1       2.925   8.555   0.000  0.00  0.00    -0.081 S 
ENDROOT
BRANCH   5   4
ATOM      1  C   UNL     1      -2.272  10.055   0.000  0.00  0.00    +0.004 A 
ATOM      2  C   UNL     1      -2.272   8.555   0.000  0.00  0.00    +0.001 A 
ATOM      3  C   UNL     1      -0.972   7.805   0.000  0.00  0.00    +0.010 A 
ATOM      4  C   UNL     1       0.327   8.555   0.000  0.00  0.00    +0.025 A 
ATOM     24  C   UNL     1       0.327  10.055   0.000  0.00  0.00    +0.123 A 
ATOM     27  C   UNL     1      -0.972  10.805   0.000  0.00  0.00    +0.046 A 
BRANCH  24  25
ATOM     25  O   UNL     1       1.626  10.805   0.000  0.00  0.00    -0.506 OA
ATOM     26  H   UNL     1       2.437  10.336   0.000  0.00  0.00    +0.292 HD
ENDBRANCH  24  25
ENDBRANCH   5   4
BRANCH   9  10
ATOM     10  C   UNL     1       5.523   5.555   0.000  0.00  0.00    +0.107 C 
ATOM     11  N   UNL     1       6.822   4.805   0.000  0.00  0.00    -0.191 NA
ENDBRANCH   9  10
BRANCH  12  13
ATOM     13  N   UNL     1       5.523   8.555   0.000  0.00  0.00    -0.307 N 
ATOM     14  H   UNL     1       6.375   8.062   0.000  0.00  0.00    +0.153 HD
BRANCH  13  15
ATOM     15  C   UNL     1       5.523  10.055   0.000  0.00  0.00    +0.050 A 
ATOM     16  C   UNL     1       6.822  10.805   0.000  0.00  0.00    +0.025 A 
ATOM     17  C   UNL     1       6.822  12.305   0.000  0.00  0.00    +0.002 A 
ATOM     18  C   UNL     1       5.523  13.055   0.000  0.00  0.00    +0.002 A 
ATOM     19  C   UNL     1       4.224  12.305   0.000  0.00  0.00    +0.022 A 
ATOM     20  C   UNL     1       4.224  10.805   0.000  0.00  0.00    +0.062 A 
ATOM     21 CL   UNL     1       2.925  10.055   0.000  0.00  0.00    -0.082 Cl
ENDBRANCH  13  15
ENDBRANCH  12  13
TORSDOF 5