REMARK  Name = 38743
REMARK  5 active torsions:
REMARK  status: ('A' for Active; 'I' for Inactive)
REMARK    1  A    between atoms: C_6  and  C_10
REMARK    2  A    between atoms: C_10  and  C_15
REMARK    3  A    between atoms: C_15  and  C_16
REMARK    4  A    between atoms: C_16  and  C_17
REMARK    5  A    between atoms: C_17  and  O_19
REMARK                            x       y       z     vdW  Elec       q    Type
REMARK                         _______ _______ _______ _____ _____    ______ ____
ROOT
ATOM      1  O   UNL     1      -9.281  -3.527   0.000  0.00  0.00    -0.252 OA
ATOM      2  C   UNL     1      -7.911  -4.137   0.000  0.00  0.00    +0.307 C 
ATOM      3  N   UNL     1      -7.599  -5.604   0.000  0.00  0.00    -0.238 N 
ATOM      4  H   UNL     1      -8.258  -6.336   0.000  0.00  0.00    +0.159 HD
ATOM      5  C   UNL     1      -6.107  -5.761   0.000  0.00  0.00    +0.248 C 
ATOM      6  C   UNL     1      -5.497  -4.391   0.000  0.00  0.00    +0.138 C 
ATOM     19  O   UNL     1      -5.357  -7.060   0.000  0.00  0.00    -0.273 OA
ATOM     20  N   UNL     1      -6.612  -3.387   0.000  0.00  0.00    -0.281 N 
ATOM     21  H   UNL     1      -6.455  -1.895   0.000  0.00  0.00    +0.152 HD
ENDROOT
BRANCH   6  13
ATOM     13  C   UNL     1      -4.198  -5.141   0.000  0.00  0.00    -0.015 A 
ATOM     14  C   UNL     1      -4.198  -6.641   0.000  0.00  0.00    +0.006 A 
ATOM     15  C   UNL     1      -2.899  -7.391   0.000  0.00  0.00    +0.000 A 
ATOM     16  C   UNL     1      -1.600  -6.641   0.000  0.00  0.00    +0.000 A 
ATOM     17  C   UNL     1      -1.600  -5.141   0.000  0.00  0.00    +0.000 A 
ATOM     18  C   UNL     1      -2.899  -4.391   0.000  0.00  0.00    +0.006 A 
ENDBRANCH   6  13
BRANCH   6   7
ATOM      7  C   UNL     1      -4.615  -3.177   0.000  0.00  0.00    +0.051 C 
BRANCH   7   8
ATOM      8  C   UNL     1      -3.123  -3.334   0.000  0.00  0.00    +0.123 C 
BRANCH   8   9
ATOM      9  C   UNL     1      -2.242  -2.120   0.000  0.00  0.00    +0.305 C 
ATOM     12  O   UNL     1      -0.750  -2.277   0.000  0.00  0.00    -0.251 OA
BRANCH   9  10
ATOM     10  O   UNL     1      -2.852  -0.750   0.000  0.00  0.00    -0.481 OA
ATOM     11  H   UNL     1      -2.301   0.008   0.000  0.00  0.00    +0.295 HD
ENDBRANCH   9  10
ENDBRANCH   8   9
ENDBRANCH   7   8
ENDBRANCH   6   7
TORSDOF 5