REMARK  Name = 32892
REMARK  4 active torsions:
REMARK  status: ('A' for Active; 'I' for Inactive)
REMARK    1  A    between atoms: N_4  and  C_13
REMARK    2  A    between atoms: C_7  and  C_18
REMARK    3  A    between atoms: C_10  and  C_17
REMARK    4  A    between atoms: C_18  and  C_19
REMARK                            x       y       z     vdW  Elec       q    Type
REMARK                         _______ _______ _______ _____ _____    ______ ____
ROOT
ATOM      7  C   UNL     1       3.522   7.399   0.000  0.00  0.00    +0.038 C 
ATOM      8  C   UNL     1       3.522   8.899   0.000  0.00  0.00    +0.062 C 
ATOM      9  N   UNL     1       4.821   6.649   0.000  0.00  0.00    -0.254 NA
ENDROOT
BRANCH   7   6
ATOM      1  O   UNL     1      -0.375   6.649   0.000  0.00  0.00    -0.430 OA
ATOM      2  C   UNL     1      -0.375   5.149   0.000  0.00  0.00    +0.109 C 
ATOM      3  C   UNL     1      -1.674   4.399   0.000  0.00  0.00    +0.086 C 
ATOM      4  C   UNL     1       0.924   4.399   0.000  0.00  0.00    +0.089 C 
ATOM      5  C   UNL     1       2.223   5.149   0.000  0.00  0.00    +0.178 C 
ATOM      6  C   UNL     1       2.223   6.649   0.000  0.00  0.00    +0.212 C 
ATOM     17  O   UNL     1       3.522   4.399   0.000  0.00  0.00    -0.291 OA
ATOM     18  C   UNL     1       0.924   7.399   0.000  0.00  0.00    +0.328 C 
ATOM     19  O   UNL     1       0.924   8.899   0.000  0.00  0.00    -0.249 OA
ENDBRANCH   7   6
BRANCH   9  10
ATOM     10  C   UNL     1       6.120   7.399   0.000  0.00  0.00    +0.082 A 
ATOM     11  C   UNL     1       7.419   6.649   0.000  0.00  0.00    +0.066 A 
ATOM     12  C   UNL     1       8.718   7.399   0.000  0.00  0.00    +0.022 A 
ATOM     13  C   UNL     1       8.718   8.899   0.000  0.00  0.00    +0.002 A 
ATOM     14  C   UNL     1       7.419   9.649   0.000  0.00  0.00    +0.002 A 
ATOM     15 CL   UNL     1       7.419   5.149   0.000  0.00  0.00    -0.081 Cl
ATOM     16  C   UNL     1       6.120   8.899   0.000  0.00  0.00    +0.029 A 
ENDBRANCH   9  10
TORSDOF 2