REMARK  Name = 34910
REMARK  6 active torsions:
REMARK  status: ('A' for Active; 'I' for Inactive)
REMARK    1  A    between atoms: C_4  and  C_7
REMARK    2  A    between atoms: C_10  and  C_18
REMARK    3  A    between atoms: C_15  and  C_17
REMARK    4  A    between atoms: C_18  and  O_20
REMARK    5  A    between atoms: O_20  and  C_21
REMARK    6  A    between atoms: C_21  and  C_22
REMARK                            x       y       z     vdW  Elec       q    Type
REMARK                         _______ _______ _______ _____ _____    ______ ____
ROOT
ATOM      1  N   UNL     1      -4.172  -4.774   0.000  0.00  0.00    -0.247 NA
ATOM      2  C   UNL     1      -5.471  -5.524   0.000  0.00  0.00    +0.072 A 
ATOM      3  C   UNL     1      -6.770  -4.774   0.000  0.00  0.00    +0.028 A 
ATOM      4  C   UNL     1      -8.069  -5.524   0.000  0.00  0.00    +0.005 A 
ATOM      5  C   UNL     1      -8.069  -7.024   0.000  0.00  0.00    -0.050 A 
ATOM      6  C   UNL     1      -9.368  -7.774   0.000  0.00  0.00    +0.044 C 
ATOM      7  C   UNL     1      -6.770  -7.774   0.000  0.00  0.00    +0.014 A 
ATOM      8  C   UNL     1      -5.471  -7.024   0.000  0.00  0.00    +0.015 A 
ATOM      9  C   UNL     1      -4.172  -7.774   0.000  0.00  0.00    +0.070 A 
ATOM     15  C   UNL     1      -2.873  -7.024   0.000  0.00  0.00    +0.044 A 
ATOM     16  C   UNL     1      -2.873  -5.524   0.000  0.00  0.00    +0.072 A 
ENDROOT
BRANCH  16  17
ATOM     17  C   UNL     1      -1.574  -4.774   0.000  0.00  0.00    +0.000 A 
ATOM     18  C   UNL     1      -0.275  -5.524   0.000  0.00  0.00    +0.010 A 
ATOM     19  C   UNL     1       1.025  -4.774   0.000  0.00  0.00    +0.001 A 
ATOM     20  C   UNL     1       1.025  -3.275   0.000  0.00  0.00    +0.000 A 
ATOM     21  C   UNL     1      -0.275  -2.525   0.000  0.00  0.00    +0.001 A 
ATOM     22  C   UNL     1      -1.574  -3.275   0.000  0.00  0.00    +0.010 A 
ENDBRANCH  16  17
BRANCH   9  10
ATOM     10  C   UNL     1      -4.172  -9.274   0.000  0.00  0.00    +0.340 C 
ATOM     14  O   UNL     1      -5.471 -10.025   0.000  0.00  0.00    -0.245 OA
BRANCH  10  11
ATOM     11  O   UNL     1      -2.873 -10.025   0.000  0.00  0.00    -0.461 OA
BRANCH  11  12
ATOM     12  C   UNL     1      -1.573  -9.274   0.000  0.00  0.00    +0.229 C 
ATOM     13  C   UNL     1      -0.275 -10.025   0.000  0.00  0.00    +0.048 C 
ENDBRANCH  11  12
ENDBRANCH  10  11
ENDBRANCH   9  10
TORSDOF 4