REMARK  Name = 289365
REMARK  4 active torsions:
REMARK  status: ('A' for Active; 'I' for Inactive)
REMARK    1  A    between atoms: C_5  and  O_7
REMARK    2  A    between atoms: C_6  and  O_17
REMARK    3  A    between atoms: O_7  and  C_8
REMARK    4  A    between atoms: C_8  and  C_10
REMARK                            x       y       z     vdW  Elec       q    Type
REMARK                         _______ _______ _______ _____ _____    ______ ____
ROOT
ATOM      8  O   UNL     1      -3.522  -5.899   0.000  0.00  0.00    -0.417 OA
ENDROOT
BRANCH   8   7
ATOM      1  C   UNL     1      -7.419  -6.649   0.000  0.00  0.00    +0.024 A 
ATOM      2  C   UNL     1      -7.419  -8.149   0.000  0.00  0.00    +0.115 A 
ATOM      3  N   UNL     1      -6.120  -8.899   0.000  0.00  0.00    -0.218 NA
ATOM      4  C   UNL     1      -4.821  -8.149   0.000  0.00  0.00    +0.256 A 
ATOM      7  C   UNL     1      -4.821  -6.649   0.000  0.00  0.00    +0.193 A 
ATOM     18  C   UNL     1      -6.120  -5.899   0.000  0.00  0.00    +0.053 A 
BRANCH   4   5
ATOM      5  O   UNL     1      -3.522  -8.899   0.000  0.00  0.00    -0.490 OA
ATOM      6  H   UNL     1      -3.522  -9.836   0.000  0.00  0.00    +0.294 HD
ENDBRANCH   4   5
ENDBRANCH   8   7
BRANCH   8   9
ATOM      9  C   UNL     1      -3.522  -4.399   0.000  0.00  0.00    +0.345 C 
ATOM     17  O   UNL     1      -4.821  -3.650   0.000  0.00  0.00    -0.245 OA
BRANCH   9  10
ATOM     10  C   UNL     1      -2.223  -3.650   0.000  0.00  0.00    +0.061 A 
ATOM     11  C   UNL     1      -0.924  -4.399   0.000  0.00  0.00    +0.035 A 
ATOM     12  C   UNL     1       0.375  -3.650   0.000  0.00  0.00    +0.042 A 
ATOM     13 CL   UNL     1       1.674  -4.399   0.000  0.00  0.00    -0.084 Cl
ATOM     14  C   UNL     1       0.375  -2.150   0.000  0.00  0.00    +0.020 A 
ATOM     15  C   UNL     1      -0.924  -1.400   0.000  0.00  0.00    +0.002 A 
ATOM     16  C   UNL     1      -2.223  -2.150   0.000  0.00  0.00    +0.015 A 
ENDBRANCH   9  10
ENDBRANCH   8   9
TORSDOF 4