REMARK  Name = 23225
REMARK  4 active torsions:
REMARK  status: ('A' for Active; 'I' for Inactive)
REMARK    1  A    between atoms: N_1  and  N_9
REMARK    2  A    between atoms: C_3  and  C_7
REMARK    3  A    between atoms: C_6  and  C_11
REMARK    4  A    between atoms: C_7  and  C_8
REMARK                            x       y       z     vdW  Elec       q    Type
REMARK                         _______ _______ _______ _____ _____    ______ ____
ROOT
ATOM      1  N   UNL     1       5.946   3.000   0.000  0.00  0.00    -0.217 N 
ATOM      4  C   UNL     1       5.946   1.500   0.000  0.00  0.00    +0.092 C 
ATOM      5  C   UNL     1       7.245   0.750   0.000  0.00  0.00    +0.030 C 
ATOM      6  C   UNL     1       4.647   0.750   0.000  0.00  0.00    +0.024 C 
ATOM      7  C   UNL     1       3.348   1.500   0.000  0.00  0.00    +0.007 C 
ATOM      8  C   UNL     1       3.348   3.000   0.000  0.00  0.00    +0.008 C 
ATOM     11  C   UNL     1       4.647   3.750   0.000  0.00  0.00    +0.132 C 
ENDROOT
BRANCH   1   2
ATOM      2  N   UNL     1       7.245   3.750   0.000  0.00  0.00    +0.045 NA
ATOM      3  O   UNL     1       8.544   3.000   0.000  0.00  0.00    -0.126 OA
ENDBRANCH   1   2
BRANCH   8   9
ATOM      9  C   UNL     1       2.049   3.750   0.000  0.00  0.00    +0.002 C 
ATOM     10  C   UNL     1       0.750   3.000   0.000  0.00  0.00    +0.004 C 
ENDBRANCH   8   9
TORSDOF 2