REMARK  Name = 31208
REMARK  4 active torsions:
REMARK  status: ('A' for Active; 'I' for Inactive)
REMARK    1  A    between atoms: C_10  and  C_16
REMARK    2  A    between atoms: C_12  and  O_17
REMARK    3  A    between atoms: O_17  and  C_18
REMARK    4  A    between atoms: C_18  and  C_19
REMARK                            x       y       z     vdW  Elec       q    Type
REMARK                         _______ _______ _______ _____ _____    ______ ____
ROOT
ATOM      1  H   UNL     1     -13.709  -3.175   0.000  0.00  0.00    +0.157 HD
ATOM      2  N   UNL     1     -12.217  -3.332   0.000  0.00  0.00    -0.263 N 
ATOM      3  C   UNL     1     -11.467  -4.631   0.000  0.00  0.00    +0.141 C 
ATOM      4  N   UNL     1     -10.000  -4.319   0.000  0.00  0.00    -0.293 N 
ATOM      5  H   UNL     1      -8.885  -5.323   0.000  0.00  0.00    +0.154 HD
ATOM      6  C   UNL     1      -9.843  -2.827   0.000  0.00  0.00    +0.096 C 
ATOM      7  C   UNL     1      -8.544  -2.077   0.000  0.00  0.00    +0.036 C 
ATOM     17  S   UNL     1     -12.077  -6.001   0.000  0.00  0.00    -0.018 S 
ATOM     18  C   UNL     1     -11.214  -2.217   0.000  0.00  0.00    +0.264 C 
ATOM     19  O   UNL     1     -11.525  -0.750   0.000  0.00  0.00    -0.268 OA
ENDROOT
BRANCH   7   8
ATOM      8  C   UNL     1      -7.245  -2.827   0.000  0.00  0.00    -0.023 A 
ATOM      9  C   UNL     1      -7.245  -4.327   0.000  0.00  0.00    +0.011 A 
ATOM     10  C   UNL     1      -5.946  -5.077   0.000  0.00  0.00    +0.046 A 
ATOM     11  C   UNL     1      -4.647  -4.327   0.000  0.00  0.00    +0.121 A 
ATOM     15  C   UNL     1      -4.647  -2.827   0.000  0.00  0.00    +0.046 A 
ATOM     16  C   UNL     1      -5.946  -2.077   0.000  0.00  0.00    +0.011 A 
BRANCH  11  12
ATOM     12  O   UNL     1      -3.348  -5.077   0.000  0.00  0.00    -0.492 OA
BRANCH  12  13
ATOM     13  C   UNL     1      -2.049  -4.327   0.000  0.00  0.00    +0.225 C 
ATOM     14  C   UNL     1      -0.750  -5.077   0.000  0.00  0.00    +0.048 C 
ENDBRANCH  12  13
ENDBRANCH  11  12
ENDBRANCH   7   8
TORSDOF 3