REMARK  Name = 36582
REMARK  3 active torsions:
REMARK  status: ('A' for Active; 'I' for Inactive)
REMARK    1  A    between atoms: C_9  and  C_11
REMARK    2  A    between atoms: N_13  and  C_14
REMARK    3  A    between atoms: C_14  and  C_15
REMARK                            x       y       z     vdW  Elec       q    Type
REMARK                         _______ _______ _______ _____ _____    ______ ____
ROOT
ATOM      1  O   UNL     1      -2.223  -3.650   0.000  0.00  0.00    -0.473 OA
ATOM      2  C   UNL     1      -0.924  -4.399   0.000  0.00  0.00    +0.296 C 
ATOM     10  C   UNL     1      -0.924  -5.899   0.000  0.00  0.00    +0.283 C 
ATOM     11  O   UNL     1      -2.223  -6.649   0.000  0.00  0.00    -0.484 OA
ATOM     12  C   UNL     1      -3.522  -5.899   0.000  0.00  0.00    +0.162 A 
ATOM     13  C   UNL     1      -4.821  -6.649   0.000  0.00  0.00    +0.049 A 
ATOM     14  C   UNL     1      -6.120  -5.899   0.000  0.00  0.00    +0.004 A 
ATOM     15  C   UNL     1      -6.120  -4.399   0.000  0.00  0.00    +0.004 A 
ATOM     16  C   UNL     1      -4.821  -3.650   0.000  0.00  0.00    +0.049 A 
ATOM     17  C   UNL     1      -3.522  -4.399   0.000  0.00  0.00    +0.163 A 
ENDROOT
BRANCH   2   3
ATOM      3  C   UNL     1       0.375  -3.650   0.000  0.00  0.00    +0.257 C 
ATOM      4  N   UNL     1       0.375  -2.150   0.000  0.00  0.00    -0.309 N 
ATOM      5  H   UNL     1      -0.478  -1.657   0.000  0.00  0.00    +0.149 HD
ATOM      9  O   UNL     1       1.674  -4.399   0.000  0.00  0.00    -0.272 OA
BRANCH   4   6
ATOM      6  C   UNL     1       1.674  -1.400   0.000  0.00  0.00    +0.131 C 
BRANCH   6   7
ATOM      7  C   UNL     1       2.973  -2.150   0.000  0.00  0.00    -0.016 C 
ATOM      8  C   UNL     1       2.973  -3.650   0.000  0.00  0.00    +0.005 C 
ENDBRANCH   6   7
ENDBRANCH   4   6
ENDBRANCH   2   3
TORSDOF 3