REMARK  Name = 289748
REMARK  6 active torsions:
REMARK  status: ('A' for Active; 'I' for Inactive)
REMARK    1  A    between atoms: C_1  and  C_16
REMARK    2  A    between atoms: C_5  and  N_7
REMARK    3  A    between atoms: N_8  and  C_9
REMARK    4  A    between atoms: C_14  and  N_15
REMARK    5  A    between atoms: N_15  and  C_17
REMARK    6  A    between atoms: N_15  and  C_18
REMARK                            x       y       z     vdW  Elec       q    Type
REMARK                         _______ _______ _______ _____ _____    ______ ____
ROOT
ATOM      6  N   UNL     1       2.450   0.317   0.000  0.00  0.00    -0.075 NA
ATOM      7  N   UNL     1       3.200  -0.982   0.000  0.00  0.00    -0.144 NA
ENDROOT
BRANCH   6   5
ATOM      1  C   UNL     1      -1.358  -0.433   0.000  0.00  0.00    +0.202 A 
ATOM      2  C   UNL     1      -2.571  -1.314   0.000  0.00  0.00    +0.124 C 
ATOM      3  C   UNL     1      -1.358   1.067   0.000  0.00  0.00    +0.127 A 
ATOM      4  S   UNL     1       0.069   1.531   0.000  0.00  0.00    +0.002 S 
ATOM      5  C   UNL     1       0.951   0.317   0.000  0.00  0.00    +0.376 A 
ATOM     17  N   UNL     1       0.069  -0.896   0.000  0.00  0.00    -0.143 N 
ATOM     18  O   UNL     1       0.532  -2.323   0.000  0.00  0.00    -0.618 OA
ENDBRANCH   6   5
BRANCH   7   8
ATOM      8  C   UNL     1       4.700  -0.982   0.000  0.00  0.00    +0.086 A 
ATOM      9  C   UNL     1       5.450  -2.281   0.000  0.00  0.00    +0.031 A 
ATOM     10  C   UNL     1       6.950  -2.281   0.000  0.00  0.00    +0.025 A 
ATOM     11  C   UNL     1       7.700  -0.982   0.000  0.00  0.00    +0.029 A 
ATOM     15  C   UNL     1       6.950   0.317   0.000  0.00  0.00    +0.025 A 
ATOM     16  C   UNL     1       5.450   0.317   0.000  0.00  0.00    +0.031 A 
BRANCH  11  12
ATOM     12  N   UNL     1       9.200  -0.982   0.000  0.00  0.00    -0.336 N 
ATOM     13  C   UNL     1       9.950   0.317   0.000  0.00  0.00    +0.129 C 
ATOM     14  C   UNL     1       9.950  -2.281   0.000  0.00  0.00    +0.129 C 
ENDBRANCH  11  12
ENDBRANCH   7   8
TORSDOF 3