REMARK  Name = 319990
REMARK  3 active torsions:
REMARK  status: ('A' for Active; 'I' for Inactive)
REMARK    1  A    between atoms: C_12  and  N_30
REMARK    2  A    between atoms: C_15  and  N_31
REMARK    3  A    between atoms: C_17  and  C_32
REMARK                            x       y       z     vdW  Elec       q    Type
REMARK                         _______ _______ _______ _____ _____    ______ ____
ROOT
ATOM     12  C   UNL     1       0.701 -14.730   0.000  0.00  0.00    +0.037 A 
ATOM     13  C   UNL     1       2.201 -14.730   0.000  0.00  0.00    +0.024 A 
ATOM     14  C   UNL     1       2.951 -13.431   0.000  0.00  0.00    +0.007 A 
ATOM     15  C   UNL     1       2.201 -12.132   0.000  0.00  0.00    -0.029 A 
ATOM     16  C   UNL     1       2.951 -10.833   0.000  0.00  0.00    +0.045 C 
ATOM     17  C   UNL     1       0.701 -12.132   0.000  0.00  0.00    +0.039 A 
ATOM     33  C   UNL     1      -0.049 -13.431   0.000  0.00  0.00    +0.047 A 
ENDROOT
BRANCH  12  10
ATOM      1  C   UNL     1      -8.706 -16.578   0.000  0.00  0.00    +0.002 A 
ATOM      2  C   UNL     1      -8.706 -18.078   0.000  0.00  0.00    +0.001 A 
ATOM      3  C   UNL     1      -7.407 -18.828   0.000  0.00  0.00    +0.017 A 
ATOM      4  C   UNL     1      -6.107 -18.078   0.000  0.00  0.00    +0.041 A 
ATOM      5  S   UNL     1      -4.681 -18.542   0.000  0.00  0.00    -0.052 S 
ATOM      6  C   UNL     1      -3.799 -17.328   0.000  0.00  0.00    +0.167 A 
ATOM      7  N   UNL     1      -2.299 -17.328   0.000  0.00  0.00    -0.248 N 
ATOM      8  H   UNL     1      -1.807 -18.181   0.000  0.00  0.00    +0.158 HD
ATOM      9  C   UNL     1      -1.549 -16.029   0.000  0.00  0.00    +0.310 C 
ATOM     10  N   UNL     1      -0.049 -16.029   0.000  0.00  0.00    -0.269 N 
ATOM     11  H   UNL     1       0.443 -16.882   0.000  0.00  0.00    +0.156 HD
ATOM     34  O   UNL     1      -2.299 -14.730   0.000  0.00  0.00    -0.252 OA
ATOM     35  N   UNL     1      -4.681 -16.115   0.000  0.00  0.00    -0.225 NA
ATOM     36  C   UNL     1      -6.107 -16.578   0.000  0.00  0.00    +0.080 A 
ATOM     37  C   UNL     1      -7.407 -15.828   0.000  0.00  0.00    +0.029 A 
ENDBRANCH  12  10
BRANCH  17  18
ATOM     18  N   UNL     1      -0.049 -10.833   0.000  0.00  0.00    -0.269 N 
ATOM     19  H   UNL     1      -1.034 -10.833   0.000  0.00  0.00    +0.156 HD
ATOM     20  C   UNL     1       0.701  -9.534   0.000  0.00  0.00    +0.310 C 
ATOM     21  N   UNL     1       2.201  -9.534   0.000  0.00  0.00    -0.248 N 
ATOM     22  H   UNL     1       2.693 -10.387   0.000  0.00  0.00    +0.158 HD
ATOM     23  C   UNL     1       2.951  -8.235   0.000  0.00  0.00    +0.167 A 
ATOM     24  S   UNL     1       4.443  -8.078   0.000  0.00  0.00    -0.052 S 
ATOM     25  C   UNL     1       4.755  -6.611   0.000  0.00  0.00    +0.041 A 
ATOM     26  C   UNL     1       6.053  -5.861   0.000  0.00  0.00    +0.017 A 
ATOM     27  C   UNL     1       6.053  -4.361   0.000  0.00  0.00    +0.001 A 
ATOM     28  C   UNL     1       4.755  -3.611   0.000  0.00  0.00    +0.002 A 
ATOM     29  C   UNL     1       3.455  -4.361   0.000  0.00  0.00    +0.029 A 
ATOM     30  C   UNL     1       3.455  -5.861   0.000  0.00  0.00    +0.080 A 
ATOM     31  N   UNL     1       2.341  -6.865   0.000  0.00  0.00    -0.225 NA
ATOM     32  O   UNL     1      -0.049  -8.235   0.000  0.00  0.00    -0.252 OA
ENDBRANCH  17  18
TORSDOF 2