REMARK  Name = 401077
REMARK  5 active torsions:
REMARK  status: ('A' for Active; 'I' for Inactive)
REMARK    1  A    between atoms: N_2  and  C_22
REMARK    2  A    between atoms: C_12  and  C_26
REMARK    3  A    between atoms: C_22  and  C_23
REMARK    4  A    between atoms: C_22  and  C_26
REMARK    5  A    between atoms: C_23  and  O_25
REMARK                            x       y       z     vdW  Elec       q    Type
REMARK                         _______ _______ _______ _____ _____    ______ ____
ROOT
ATOM     12  C   UNL     1      -7.201  -4.702   0.000  0.00  0.00    +0.197 C 
ENDROOT
BRANCH  12  11
ATOM      1  O   UNL     1     -10.304  -3.694   0.000  0.00  0.00    -0.270 OA
ATOM      2  C   UNL     1      -9.841  -5.121   0.000  0.00  0.00    +0.255 C 
ATOM      3  C   UNL     1     -10.723  -6.334   0.000  0.00  0.00    +0.049 A 
ATOM      4  C   UNL     1     -12.214  -6.491   0.000  0.00  0.00    +0.014 A 
ATOM      5  C   UNL     1     -12.824  -7.861   0.000  0.00  0.00    +0.001 A 
ATOM      6  C   UNL     1     -11.943  -9.075   0.000  0.00  0.00    +0.001 A 
ATOM      7  C   UNL     1     -10.451  -8.918   0.000  0.00  0.00    +0.014 A 
ATOM      8  C   UNL     1      -9.841  -7.548   0.000  0.00  0.00    +0.049 A 
ATOM      9  C   UNL     1      -8.414  -7.084   0.000  0.00  0.00    +0.255 C 
ATOM     10  O   UNL     1      -7.201  -7.966   0.000  0.00  0.00    -0.270 OA
ATOM     11  N   UNL     1      -8.414  -5.584   0.000  0.00  0.00    -0.220 N 
ENDBRANCH  12  11
BRANCH  12  24
ATOM     24  C   UNL     1      -7.358  -3.211   0.000  0.00  0.00    +0.326 C 
ATOM     27  O   UNL     1      -6.144  -2.329   0.000  0.00  0.00    -0.249 OA
BRANCH  24  25
ATOM     25  O   UNL     1      -8.728  -2.600   0.000  0.00  0.00    -0.479 OA
ATOM     26  H   UNL     1      -8.826  -1.669   0.000  0.00  0.00    +0.295 HD
ENDBRANCH  24  25
ENDBRANCH  12  24
BRANCH  12  13
ATOM     13  C   UNL     1      -5.830  -5.313   0.000  0.00  0.00    +0.071 C 
BRANCH  13  14
ATOM     14  C   UNL     1      -4.617  -4.431   0.000  0.00  0.00    -0.020 A 
ATOM     15  C   UNL     1      -4.617  -2.931   0.000  0.00  0.00    +0.087 A 
ATOM     16  N   UNL     1      -3.190  -2.467   0.000  0.00  0.00    -0.360 N 
ATOM     17  H   UNL     1      -2.727  -1.041   0.000  0.00  0.00    +0.165 HD
ATOM     18  C   UNL     1      -2.309  -3.681   0.000  0.00  0.00    +0.047 A 
ATOM     19  C   UNL     1      -0.817  -3.838   0.000  0.00  0.00    +0.026 A 
ATOM     20  C   UNL     1      -0.207  -5.208   0.000  0.00  0.00    +0.002 A 
ATOM     21  C   UNL     1      -1.088  -6.422   0.000  0.00  0.00    +0.001 A 
ATOM     22  C   UNL     1      -2.580  -6.265   0.000  0.00  0.00    +0.010 A 
ATOM     23  C   UNL     1      -3.190  -4.894   0.000  0.00  0.00    +0.003 A 
ENDBRANCH  13  14
ENDBRANCH  12  13
TORSDOF 5