REMARK  Name = 344494
REMARK  0 active torsions:
REMARK  status: ('A' for Active; 'I' for Inactive)
REMARK                            x       y       z     vdW  Elec       q    Type
REMARK                         _______ _______ _______ _____ _____    ______ ____
ROOT
ATOM      1 CL   UNL     1       1.400   0.924   0.000  0.00  0.00    +0.037 Cl
ATOM      2  N   UNL     1       2.150  -0.375   0.000  0.00  0.00    -0.175 NA
ATOM      3  C   UNL     1       3.650  -0.375   0.000  0.00  0.00    +0.105 C 
ATOM      4  C   UNL     1       4.399  -1.674   0.000  0.00  0.00    +0.031 C 
ATOM      5  C   UNL     1       5.899  -1.674   0.000  0.00  0.00    +0.002 C 
ATOM      6  C   UNL     1       6.649  -0.375   0.000  0.00  0.00    +0.002 C 
ATOM      7  C   UNL     1       5.899   0.924   0.000  0.00  0.00    +0.031 C 
ATOM      8  C   UNL     1       4.399   0.924   0.000  0.00  0.00    +0.105 C 
ATOM      9  N   UNL     1       3.650   2.223   0.000  0.00  0.00    -0.175 NA
ATOM     10 CL   UNL     1       2.150   2.223   0.000  0.00  0.00    +0.037 Cl
ENDROOT
TORSDOF 0