REMARK  Name = 31664
REMARK  5 active torsions:
REMARK  status: ('A' for Active; 'I' for Inactive)
REMARK    1  A    between atoms: C_4  and  AS_9
REMARK    2  A    between atoms: C_5  and  O_12
REMARK    3  A    between atoms: C_6  and  N_8
REMARK    4  A    between atoms: AS_9  and  O_10
REMARK    5  A    between atoms: AS_9  and  O_11
REMARK                            x       y       z     vdW  Elec       q    Type
REMARK                         _______ _______ _______ _____ _____    ______ ____
ROOT
ATOM      7  C   UNL     1      -1.752  -3.477   0.000  0.00  0.00    +0.000 A 
ATOM      8  C   UNL     1      -1.712  -4.977   0.000  0.00  0.00    +0.000 A 
ATOM     11  C   UNL     1      -2.991  -5.761   0.000  0.00  0.00    +0.000 A 
ATOM     12  C   UNL     1      -4.309  -5.045   0.000  0.00  0.00    +0.000 A 
ATOM     16  C   UNL     1      -4.349  -3.546   0.000  0.00  0.00    +0.000 A 
ATOM     17  C   UNL     1      -3.070  -2.762   0.000  0.00  0.00    +0.000 A 
ENDROOT
BRANCH  12  13
ATOM     13  N   UNL     1      -5.588  -5.829   0.000  0.00  0.00    +0.000 N 
ATOM     14  H   UNL     1      -5.562  -6.813   0.000  0.00  0.00    +0.000 HD
ATOM     15  H   UNL     1      -6.454  -5.359   0.000  0.00  0.00    +0.000 HD
ENDBRANCH  12  13
BRANCH   7   2
ATOM      1  O   UNL     1       1.447  -3.216   0.000  0.00  0.00    +0.000 OA
ATOM      2 AS   UNL     1       0.358  -2.184   0.000  0.00  0.00    +0.000 As
BRANCH   2   3
ATOM      3  O   UNL     1      -1.141  -2.223   0.000  0.00  0.00    +0.000 OA
ATOM      4  H   UNL     1      -1.648  -1.396   0.000  0.00  0.00    +0.000 HD
ENDBRANCH   2   3
BRANCH   2   5
ATOM      5  O   UNL     1       0.708  -0.725   0.000  0.00  0.00    +0.000 OA
ATOM      6  H   UNL     1       1.638  -0.449   0.000  0.00  0.00    +0.000 HD
ENDBRANCH   2   5
ENDBRANCH   7   2
BRANCH   8   9
ATOM      9  O   UNL     1      -0.394  -5.692   0.000  0.00  0.00    +0.000 OA
ATOM     10  H   UNL     1      -0.369  -6.629   0.000  0.00  0.00    +0.000 HD
ENDBRANCH   8   9
TORSDOF 5