REMARK  Name = 379468
REMARK  3 active torsions:
REMARK  status: ('A' for Active; 'I' for Inactive)
REMARK    1  A    between atoms: C_6  and  N_17
REMARK    2  A    between atoms: C_11  and  N_18
REMARK    3  A    between atoms: C_16  and  C_19
REMARK                            x       y       z     vdW  Elec       q    Type
REMARK                         _______ _______ _______ _____ _____    ______ ____
ROOT
ATOM      6  N   UNL     1       2.900   4.272   0.000  0.00  0.00    -0.267 N 
ATOM      7  H   UNL     1       3.392   3.420   0.000  0.00  0.00    +0.156 HD
ATOM      8  C   UNL     1       3.650   5.571   0.000  0.00  0.00    +0.308 C 
ATOM      9  N   UNL     1       5.149   5.571   0.000  0.00  0.00    -0.268 N 
ATOM     10  H   UNL     1       5.642   4.719   0.000  0.00  0.00    +0.156 HD
ATOM     18  O   UNL     1       2.900   6.870   0.000  0.00  0.00    -0.252 OA
ENDROOT
BRANCH   6   5
ATOM      1  C   UNL     1      -1.601   4.272   0.000  0.00  0.00    +0.003 A 
ATOM      2  C   UNL     1      -0.851   2.973   0.000  0.00  0.00    +0.022 A 
ATOM      3  C   UNL     1       0.649   2.973   0.000  0.00  0.00    +0.064 A 
ATOM      4 CL   UNL     1       1.400   1.674   0.000  0.00  0.00    -0.082 Cl
ATOM      5  C   UNL     1       1.400   4.272   0.000  0.00  0.00    +0.072 A 
ATOM     19  C   UNL     1       0.649   5.571   0.000  0.00  0.00    +0.064 A 
ATOM     20 CL   UNL     1       1.400   6.870   0.000  0.00  0.00    -0.082 Cl
ATOM     21  C   UNL     1      -0.851   5.571   0.000  0.00  0.00    +0.022 A 
ENDBRANCH   6   5
BRANCH   9  11
ATOM     11  C   UNL     1       5.899   6.870   0.000  0.00  0.00    +0.053 A 
ATOM     12  C   UNL     1       7.399   6.870   0.000  0.00  0.00    +0.026 A 
ATOM     13  C   UNL     1       8.149   8.169   0.000  0.00  0.00    +0.025 A 
ATOM     14  C   UNL     1       7.399   9.468   0.000  0.00  0.00    +0.038 A 
ATOM     15  C   UNL     1       8.149  10.767   0.000  0.00  0.00    +0.065 C 
ATOM     16  N   UNL     1       5.899   9.468   0.000  0.00  0.00    -0.258 NA
ATOM     17  C   UNL     1       5.149   8.169   0.000  0.00  0.00    +0.134 A 
ENDBRANCH   9  11
TORSDOF 2