REMARK  Name = 350187
REMARK  7 active torsions:
REMARK  status: ('A' for Active; 'I' for Inactive)
REMARK    1  A    between atoms: C_1  and  C_23
REMARK    2  A    between atoms: C_1  and  C_24
REMARK    3  A    between atoms: P_6  and  O_8
REMARK    4  A    between atoms: O_8  and  C_9
REMARK    5  A    between atoms: O_10  and  C_12
REMARK    6  A    between atoms: O_10  and  C_25
REMARK    7  A    between atoms: N_16  and  C_17
REMARK                            x       y       z     vdW  Elec       q    Type
REMARK                         _______ _______ _______ _____ _____    ______ ____
ROOT
ATOM      8  C   UNL     1       8.368  -0.501   0.000  0.00  0.00    +0.196 A 
ATOM      9  C   UNL     1       9.118  -1.800   0.000  0.00  0.00    +0.230 A 
ATOM     10  C   UNL     1      10.618  -1.800   0.000  0.00  0.00    +0.313 A 
ATOM     11  O   UNL     1      11.368  -3.099   0.000  0.00  0.00    -0.262 OA
ATOM     12  N   UNL     1      11.368  -0.501   0.000  0.00  0.00    -0.223 N 
ATOM     19  N   UNL     1      10.618   0.798   0.000  0.00  0.00    -0.172 NA
ATOM     22  C   UNL     1       9.118   0.798   0.000  0.00  0.00    +0.183 A 
ENDROOT
BRANCH  12  13
ATOM     13  C   UNL     1      12.868  -0.501   0.000  0.00  0.00    +0.111 C 
ATOM     14  C   UNL     1      13.618  -1.800   0.000  0.00  0.00    +0.027 C 
ATOM     15  C   UNL     1      15.118  -1.800   0.000  0.00  0.00    +0.002 C 
ATOM     16  C   UNL     1      15.868  -0.501   0.000  0.00  0.00    +0.000 C 
ATOM     17  C   UNL     1      15.118   0.798   0.000  0.00  0.00    +0.002 C 
ATOM     18  C   UNL     1      13.618   0.798   0.000  0.00  0.00    +0.027 C 
ENDBRANCH  12  13
BRANCH   9  20
ATOM     20  O   UNL     1       8.368  -3.099   0.000  0.00  0.00    -0.487 OA
ATOM     21  C   UNL     1       6.868  -3.099   0.000  0.00  0.00    +0.277 C 
ENDBRANCH   9  20
BRANCH   8   7
ATOM      7  O   UNL     1       6.868  -0.501   0.000  0.00  0.00    -0.421 OA
BRANCH   7   6
ATOM      1  C   UNL     1       3.520   2.298   0.000  0.00  0.00    +0.013 C 
ATOM      2  C   UNL     1       2.042   2.038   0.000  0.00  0.00    +0.015 C 
ATOM      3  C   UNL     1       3.007   3.708   0.000  0.00  0.00    +0.015 C 
ATOM      4  C   UNL     1       3.520   0.798   0.000  0.00  0.00    +0.179 C 
ATOM      5  O   UNL     1       4.819   0.048   0.000  0.00  0.00    -0.301 OA
ATOM      6  P   UNL     1       6.118   0.798   0.000  0.00  0.00    +0.362 P 
ATOM     23  S   UNL     1       7.417   1.548   0.000  0.00  0.00    +0.036 S 
ATOM     24  O   UNL     1       6.118   2.298   0.000  0.00  0.00    -0.301 OA
ATOM     25  C   UNL     1       4.819   3.048   0.000  0.00  0.00    +0.179 C 
ENDBRANCH   7   6
ENDBRANCH   8   7
TORSDOF 4