REMARK  Name = 234348
REMARK  11 active torsions:
REMARK  status: ('A' for Active; 'I' for Inactive)
REMARK    1  A    between atoms: N_2  and  C_24
REMARK    2  A    between atoms: N_6  and  C_25
REMARK    3  A    between atoms: N_9  and  C_26
REMARK    4  A    between atoms: O_12  and  C_13
REMARK    5  A    between atoms: O_12  and  C_27
REMARK    6  A    between atoms: C_13  and  C_15
REMARK    7  A    between atoms: C_15  and  O_16
REMARK    8  A    between atoms: C_15  and  C_28
REMARK    9  A    between atoms: C_15  and  C_29
REMARK   10  A    between atoms: O_16  and  C_17
REMARK   11  A    between atoms: C_26  and  C_27
REMARK                            x       y       z     vdW  Elec       q    Type
REMARK                         _______ _______ _______ _____ _____    ______ ____
ROOT
ATOM     10  C   UNL     1     -10.731  -4.167   0.000  0.00  0.00    +0.254 C 
ENDROOT
BRANCH  10   9
ATOM      9  C   UNL     1     -11.481  -2.868   0.000  0.00  0.00    +0.164 C 
BRANCH   9   8
ATOM      1  O   UNL     1     -17.207   1.357   0.000  0.00  0.00    -0.246 OA
ATOM      2  C   UNL     1     -16.092   0.353   0.000  0.00  0.00    +0.333 A 
ATOM      3  N   UNL     1     -16.404  -1.114   0.000  0.00  0.00    -0.280 N 
ATOM      4  C   UNL     1     -17.830  -1.577   0.000  0.00  0.00    +0.155 C 
ATOM      5  C   UNL     1     -15.289  -2.118   0.000  0.00  0.00    +0.168 A 
ATOM      6  N   UNL     1     -15.289  -3.618   0.000  0.00  0.00    -0.218 NA
ATOM      7  C   UNL     1     -13.862  -4.081   0.000  0.00  0.00    +0.202 A 
ATOM      8  N   UNL     1     -12.981  -2.868   0.000  0.00  0.00    -0.321 N 
ATOM     25  C   UNL     1     -13.862  -1.654   0.000  0.00  0.00    +0.152 A 
ATOM     26  C   UNL     1     -13.551  -0.187   0.000  0.00  0.00    +0.282 A 
ATOM     27  O   UNL     1     -12.124   0.277   0.000  0.00  0.00    -0.265 OA
ATOM     28  N   UNL     1     -14.665   0.817   0.000  0.00  0.00    -0.262 N 
ATOM     29  C   UNL     1     -14.353   2.284   0.000  0.00  0.00    +0.157 C 
ENDBRANCH   9   8
ENDBRANCH  10   9
BRANCH  10  11
ATOM     11  O   UNL     1      -9.231  -4.167   0.000  0.00  0.00    -0.460 OA
BRANCH  11  12
ATOM     12  C   UNL     1      -8.481  -2.868   0.000  0.00  0.00    +0.351 C 
ATOM     24  O   UNL     1      -9.231  -1.568   0.000  0.00  0.00    -0.246 OA
BRANCH  12  13
ATOM     13  C   UNL     1      -6.981  -2.868   0.000  0.00  0.00    +0.200 C 
ATOM     14  C   UNL     1      -6.981  -4.367   0.000  0.00  0.00    +0.067 C 
ATOM     15  C   UNL     1      -6.981  -1.367   0.000  0.00  0.00    +0.067 C 
BRANCH  13  16
ATOM     16  O   UNL     1      -5.481  -2.868   0.000  0.00  0.00    -0.475 OA
BRANCH  16  17
ATOM     17  C   UNL     1      -4.731  -4.167   0.000  0.00  0.00    +0.122 A 
ATOM     18  C   UNL     1      -5.481  -5.466   0.000  0.00  0.00    +0.047 A 
ATOM     19  C   UNL     1      -4.731  -6.765   0.000  0.00  0.00    +0.023 A 
ATOM     20  C   UNL     1      -3.231  -6.765   0.000  0.00  0.00    +0.041 A 
ATOM     21 CL   UNL     1      -2.481  -8.064   0.000  0.00  0.00    -0.084 Cl
ATOM     22  C   UNL     1      -2.481  -5.465   0.000  0.00  0.00    +0.023 A 
ATOM     23  C   UNL     1      -3.231  -4.167   0.000  0.00  0.00    +0.047 A 
ENDBRANCH  16  17
ENDBRANCH  13  16
ENDBRANCH  12  13
ENDBRANCH  11  12
ENDBRANCH  10  11
TORSDOF 7