REMARK  Name = 312606
REMARK  8 active torsions:
REMARK  status: ('A' for Active; 'I' for Inactive)
REMARK    1  A    between atoms: C_7  and  C_14
REMARK    2  A    between atoms: C_10  and  C_12
REMARK    3  A    between atoms: C_10  and  C_15
REMARK    4  A    between atoms: C_12  and  O_13
REMARK    5  A    between atoms: O_13  and  C_20
REMARK    6  A    between atoms: N_17  and  C_18
REMARK    7  A    between atoms: C_18  and  C_19
REMARK    8  A    between atoms: C_20  and  C_21
REMARK                            x       y       z     vdW  Elec       q    Type
REMARK                         _______ _______ _______ _____ _____    ______ ____
ROOT
ATOM      1  C   UNL     1      -1.812   6.139   0.000  0.00  0.00    +0.004 A 
ATOM      2  C   UNL     1      -1.812   4.639   0.000  0.00  0.00    +0.020 A 
ATOM      3  C   UNL     1      -0.513   3.889   0.000  0.00  0.00    +0.113 A 
ATOM      4  N   UNL     1       0.786   4.639   0.000  0.00  0.00    -0.237 N 
ATOM      5  N   UNL     1       2.212   4.175   0.000  0.00  0.00    -0.151 NA
ATOM      6  C   UNL     1       3.094   5.389   0.000  0.00  0.00    +0.149 A 
ATOM      7  N   UNL     1       4.594   5.389   0.000  0.00  0.00    -0.327 N 
ATOM      8  H   UNL     1       5.086   4.536   0.000  0.00  0.00    +0.148 HD
ATOM     11  C   UNL     1       2.212   6.602   0.000  0.00  0.00    +0.043 A 
ATOM     21  C   UNL     1       0.786   6.139   0.000  0.00  0.00    +0.076 A 
ATOM     22  C   UNL     1      -0.513   6.889   0.000  0.00  0.00    +0.028 A 
ENDROOT
BRANCH   7   9
ATOM      9  C   UNL     1       5.344   6.688   0.000  0.00  0.00    +0.099 C 
ATOM     10  C   UNL     1       4.594   7.987   0.000  0.00  0.00    +0.024 C 
ENDBRANCH   7   9
BRANCH  11  12
ATOM     12  C   UNL     1       2.917   7.927   0.000  0.00  0.00    +0.039 C 
ATOM     13  C   UNL     1       2.122   9.199   0.000  0.00  0.00    +0.136 C 
BRANCH  13  14
ATOM     14  C   UNL     1       2.826  10.523   0.000  0.00  0.00    +0.106 C 
ATOM     15  N   UNL     1       3.530  11.848   0.000  0.00  0.00    -0.191 NA
ENDBRANCH  13  14
BRANCH  13  16
ATOM     16  C   UNL     1       0.623   9.146   0.000  0.00  0.00    +0.350 C 
ATOM     20  O   UNL     1      -0.082   7.822   0.000  0.00  0.00    -0.244 OA
BRANCH  16  17
ATOM     17  O   UNL     1      -0.172  10.419   0.000  0.00  0.00    -0.461 OA
BRANCH  17  18
ATOM     18  C   UNL     1      -1.671  10.366   0.000  0.00  0.00    +0.229 C 
ATOM     19  C   UNL     1      -2.375   9.042   0.000  0.00  0.00    +0.048 C 
ENDBRANCH  17  18
ENDBRANCH  16  17
ENDBRANCH  13  16
ENDBRANCH  11  12
TORSDOF 6