REMARK  Name = 328111
REMARK  1 active torsions:
REMARK  status: ('A' for Active; 'I' for Inactive)
REMARK    1  A    between atoms: C_14  and  N_21
REMARK                            x       y       z     vdW  Elec       q    Type
REMARK                         _______ _______ _______ _____ _____    ______ ____
ROOT
ATOM      1 CL   UNL     1       0.750   5.250   0.000  0.00  0.00    -0.043 Cl
ATOM      2  C   UNL     1       2.049   4.500   0.000  0.00  0.00    +0.202 A 
ATOM      3  O   UNL     1       2.049   3.000   0.000  0.00  0.00    -0.410 OA
ATOM      4  C   UNL     1       3.348   2.250   0.000  0.00  0.00    +0.354 A 
ATOM      5  O   UNL     1       3.348   0.750   0.000  0.00  0.00    -0.244 OA
ATOM      6  C   UNL     1       4.647   3.000   0.000  0.00  0.00    +0.168 A 
ATOM      7  C   UNL     1       5.946   2.250   0.000  0.00  0.00    +0.292 A 
ATOM      8  O   UNL     1       5.946   0.750   0.000  0.00  0.00    -0.265 OA
ATOM      9  N   UNL     1       7.245   3.000   0.000  0.00  0.00    -0.158 NA
ATOM     10  C   UNL     1       7.245   4.500   0.000  0.00  0.00    +0.295 A 
ATOM     11  N   UNL     1       8.544   5.250   0.000  0.00  0.00    -0.269 N 
ATOM     12  H   UNL     1       8.544   6.234   0.000  0.00  0.00    +0.157 HD
ATOM     20  O   UNL     1       5.946   5.250   0.000  0.00  0.00    -0.425 OA
ATOM     21  C   UNL     1       4.647   4.500   0.000  0.00  0.00    +0.155 A 
ATOM     22  C   UNL     1       3.348   5.250   0.000  0.00  0.00    +0.106 A 
ENDROOT
BRANCH  11  13
ATOM     13  C   UNL     1       9.843   4.500   0.000  0.00  0.00    +0.036 A 
ATOM     14  C   UNL     1       9.843   3.000   0.000  0.00  0.00    +0.043 A 
ATOM     15  C   UNL     1      11.142   2.250   0.000  0.00  0.00    +0.043 A 
ATOM     16 CL   UNL     1      11.142   0.750   0.000  0.00  0.00    -0.083 Cl
ATOM     17  C   UNL     1      12.441   3.000   0.000  0.00  0.00    +0.020 A 
ATOM     18  C   UNL     1      12.441   4.500   0.000  0.00  0.00    +0.003 A 
ATOM     19  C   UNL     1      11.142   5.250   0.000  0.00  0.00    +0.023 A 
ENDBRANCH  11  13
TORSDOF 1