REMARK  Name = 31762
REMARK  5 active torsions:
REMARK  status: ('A' for Active; 'I' for Inactive)
REMARK    1  A    between atoms: N_1  and  C_19
REMARK    2  A    between atoms: C_7  and  O_23
REMARK    3  A    between atoms: C_9  and  C_21
REMARK    4  A    between atoms: C_16  and  C_20
REMARK    5  A    between atoms: C_16  and  C_22
REMARK                            x       y       z     vdW  Elec       q    Type
REMARK                         _______ _______ _______ _____ _____    ______ ____
ROOT
ATOM      1  N   UNL     1      -8.701  -2.361   0.000  0.00  0.00    -0.299 N 
ATOM      2  C   UNL     1      -7.586  -1.357   0.000  0.00  0.00    +0.136 C 
ATOM      3  C   UNL     1      -8.544  -3.853   0.000  0.00  0.00    +0.064 C 
ATOM      4  C   UNL     1      -9.915  -4.463   0.000  0.00  0.00    +0.037 C 
ATOM      5  C   UNL     1      -9.165  -5.762   0.000  0.00  0.00    +0.023 C 
ATOM      6  C   UNL     1     -11.128  -5.345   0.000  0.00  0.00    +0.023 C 
ATOM      7  C   UNL     1     -10.918  -3.348   0.000  0.00  0.00    -0.014 A 
ATOM      8  C   UNL     1     -12.418  -3.348   0.000  0.00  0.00    +0.006 A 
ATOM      9  C   UNL     1     -13.168  -2.049   0.000  0.00  0.00    +0.000 A 
ATOM     10  C   UNL     1     -12.418  -0.750   0.000  0.00  0.00    +0.002 A 
ATOM     11  C   UNL     1     -10.918  -0.750   0.000  0.00  0.00    +0.024 A 
ATOM     12  C   UNL     1      -7.245  -4.603   0.000  0.00  0.00    -0.099 C 
ATOM     13  C   UNL     1      -5.946  -5.353   0.000  0.00  0.00    +0.060 C 
ATOM     24  C   UNL     1     -10.168  -2.049   0.000  0.00  0.00    +0.038 A 
ENDROOT
BRANCH  13  14
ATOM     14  C   UNL     1      -4.647  -4.603   0.000  0.00  0.00    -0.015 A 
ATOM     15  C   UNL     1      -3.348  -5.353   0.000  0.00  0.00    +0.026 A 
ATOM     16  C   UNL     1      -2.049  -4.603   0.000  0.00  0.00    +0.056 A 
ATOM     17  C   UNL     1      -2.049  -3.103   0.000  0.00  0.00    +0.143 A 
ATOM     20  C   UNL     1      -3.348  -2.353   0.000  0.00  0.00    +0.056 A 
ATOM     21  I   UNL     1      -3.348  -0.853   0.000  0.00  0.00    -0.040 I 
ATOM     22  I   UNL     1      -0.750  -5.353   0.000  0.00  0.00    -0.040 I 
ATOM     23  C   UNL     1      -4.647  -3.103   0.000  0.00  0.00    +0.026 A 
BRANCH  17  18
ATOM     18  O   UNL     1      -0.750  -2.353   0.000  0.00  0.00    -0.505 OA
ATOM     19  H   UNL     1       0.061  -2.821   0.000  0.00  0.00    +0.292 HD
ENDBRANCH  17  18
ENDBRANCH  13  14
TORSDOF 2