REMARK  Name = 287495
REMARK  4 active torsions:
REMARK  status: ('A' for Active; 'I' for Inactive)
REMARK    1  A    between atoms: C_7  and  O_9
REMARK    2  A    between atoms: C_8  and  C_12
REMARK    3  A    between atoms: O_9  and  C_11
REMARK    4  A    between atoms: N_13  and  C_14
REMARK                            x       y       z     vdW  Elec       q    Type
REMARK                         _______ _______ _______ _____ _____    ______ ____
ROOT
ATOM      1  C   UNL     1       1.824   4.500   0.000  0.00  0.00    +0.072 A 
ATOM      2  C   UNL     1       1.824   3.000   0.000  0.00  0.00    +0.086 A 
ATOM      3  N   UNL     1       3.123   2.250   0.000  0.00  0.00    -0.362 N 
ATOM      4  H   UNL     1       3.123   0.750   0.000  0.00  0.00    +0.165 HD
ATOM      5  C   UNL     1       4.422   3.000   0.000  0.00  0.00    +0.060 A 
ATOM      6  C   UNL     1       5.721   2.250   0.000  0.00  0.00    +0.067 C 
ATOM      7  C   UNL     1       4.422   4.500   0.000  0.00  0.00    +0.198 A 
ATOM     14  C   UNL     1       3.123   5.250   0.000  0.00  0.00    +0.224 A 
ATOM     15  O   UNL     1       3.123   6.750   0.000  0.00  0.00    -0.284 OA
ENDROOT
BRANCH   7   8
ATOM      8  O   UNL     1       5.721   5.250   0.000  0.00  0.00    -0.406 OA
BRANCH   8   9
ATOM      9  C   UNL     1       7.021   4.500   0.000  0.00  0.00    +0.406 C 
ATOM     10  N   UNL     1       7.021   3.000   0.000  0.00  0.00    -0.284 N 
ATOM     11  H   UNL     1       6.168   2.508   0.000  0.00  0.00    +0.152 HD
ATOM     12  C   UNL     1       8.319   2.250   0.000  0.00  0.00    +0.131 C 
ATOM     13  O   UNL     1       8.319   5.250   0.000  0.00  0.00    -0.226 OA
ENDBRANCH   8   9
ENDBRANCH   7   8
TORSDOF 2