REMARK  Name = 36317
REMARK  6 active torsions:
REMARK  status: ('A' for Active; 'I' for Inactive)
REMARK    1  A    between atoms: C_5  and  N_26
REMARK    2  A    between atoms: C_6  and  O_27
REMARK    3  A    between atoms: C_15  and  N_21
REMARK    4  A    between atoms: C_17  and  O_19
REMARK    5  A    between atoms: O_19  and  C_20
REMARK    6  A    between atoms: O_27  and  C_28
REMARK                            x       y       z     vdW  Elec       q    Type
REMARK                         _______ _______ _______ _____ _____    ______ ____
ROOT
ATOM      1  N   UNL     1       6.770   7.774   0.000  0.00  0.00    -0.282 N 
ATOM      2  C   UNL     1       5.471   7.024   0.000  0.00  0.00    +0.307 C 
ATOM      3  O   UNL     1       4.172   7.774   0.000  0.00  0.00    -0.252 OA
ATOM      4  N   UNL     1       5.471   5.524   0.000  0.00  0.00    -0.269 N 
ATOM      5  H   UNL     1       6.323   5.032   0.000  0.00  0.00    +0.156 HD
ATOM     14  C   UNL     1       8.069   7.024   0.000  0.00  0.00    +0.128 C 
ATOM     15  C   UNL     1       9.368   7.774   0.000  0.00  0.00    +0.128 C 
ATOM     16  N   UNL     1       9.368   9.274   0.000  0.00  0.00    -0.282 N 
ATOM     17  C   UNL     1      10.667  10.025   0.000  0.00  0.00    +0.307 C 
ATOM     18  N   UNL     1      11.966   9.274   0.000  0.00  0.00    -0.269 N 
ATOM     19  H   UNL     1      11.966   8.290   0.000  0.00  0.00    +0.156 HD
ATOM     28  O   UNL     1      10.667  11.525   0.000  0.00  0.00    -0.252 OA
ATOM     29  C   UNL     1       8.069  10.025   0.000  0.00  0.00    +0.128 C 
ATOM     30  C   UNL     1       6.770   9.274   0.000  0.00  0.00    +0.128 C 
ENDROOT
BRANCH   4   6
ATOM      6  C   UNL     1       4.172   4.774   0.000  0.00  0.00    +0.035 A 
ATOM      7  C   UNL     1       4.172   3.275   0.000  0.00  0.00    +0.027 A 
ATOM      8  C   UNL     1       2.873   2.525   0.000  0.00  0.00    +0.047 A 
ATOM      9  C   UNL     1       1.574   3.275   0.000  0.00  0.00    +0.120 A 
ATOM     12  C   UNL     1       1.574   4.774   0.000  0.00  0.00    +0.047 A 
ATOM     13  C   UNL     1       2.873   5.524   0.000  0.00  0.00    +0.027 A 
BRANCH   9  10
ATOM     10  O   UNL     1       0.275   2.525   0.000  0.00  0.00    -0.495 OA
ATOM     11  C   UNL     1      -1.025   3.275   0.000  0.00  0.00    +0.277 C 
ENDBRANCH   9  10
ENDBRANCH   4   6
BRANCH  18  20
ATOM     20  C   UNL     1      13.265  10.025   0.000  0.00  0.00    +0.035 A 
ATOM     21  C   UNL     1      14.564   9.274   0.000  0.00  0.00    +0.027 A 
ATOM     22  C   UNL     1      15.863  10.025   0.000  0.00  0.00    +0.047 A 
ATOM     23  C   UNL     1      15.863  11.525   0.000  0.00  0.00    +0.120 A 
ATOM     26  C   UNL     1      14.564  12.275   0.000  0.00  0.00    +0.047 A 
ATOM     27  C   UNL     1      13.265  11.525   0.000  0.00  0.00    +0.027 A 
BRANCH  23  24
ATOM     24  O   UNL     1      17.162  12.275   0.000  0.00  0.00    -0.495 OA
ATOM     25  C   UNL     1      17.162  13.775   0.000  0.00  0.00    +0.277 C 
ENDBRANCH  23  24
ENDBRANCH  18  20
TORSDOF 4