REMARK  Name = 25368
REMARK  8 active torsions:
REMARK  status: ('A' for Active; 'I' for Inactive)
REMARK    1  A    between atoms: C_3  and  O_8
REMARK    2  A    between atoms: C_4  and  C_12
REMARK    3  A    between atoms: C_6  and  O_7
REMARK    4  A    between atoms: O_8  and  C_9
REMARK    5  A    between atoms: C_9  and  C_10
REMARK    6  A    between atoms: C_9  and  C_11
REMARK    7  A    between atoms: C_12  and  C_13
REMARK    8  A    between atoms: C_13  and  O_15
REMARK                            x       y       z     vdW  Elec       q    Type
REMARK                         _______ _______ _______ _____ _____    ______ ____
ROOT
ATOM      1  C   UNL     1      -6.114  -0.750   0.000  0.00  0.00    +0.032 C 
ATOM      2  C   UNL     1      -4.814  -1.500   0.000  0.00  0.00    +0.125 C 
ATOM      7  C   UNL     1      -4.814  -3.000   0.000  0.00  0.00    +0.057 C 
ATOM     13  C   UNL     1      -6.114  -3.750   0.000  0.00  0.00    +0.121 C 
ATOM     16  C   UNL     1      -7.413  -3.000   0.000  0.00  0.00    +0.032 C 
ATOM     17  C   UNL     1      -7.413  -1.500   0.000  0.00  0.00    +0.005 C 
ENDROOT
BRANCH  13  14
ATOM     14  O   UNL     1      -6.114  -5.250   0.000  0.00  0.00    -0.391 OA
ATOM     15  H   UNL     1      -6.954  -5.735   0.000  0.00  0.00    +0.210 HD
ENDBRANCH  13  14
BRANCH   2   3
ATOM      3  O   UNL     1      -3.515  -0.750   0.000  0.00  0.00    -0.374 OA
BRANCH   3   4
ATOM      4  C   UNL     1      -2.216  -1.500   0.000  0.00  0.00    +0.112 C 
ATOM      5  C   UNL     1      -2.216  -3.000   0.000  0.00  0.00    +0.037 C 
ATOM      6  C   UNL     1      -0.917  -0.750   0.000  0.00  0.00    +0.037 C 
ENDBRANCH   3   4
ENDBRANCH   2   3
BRANCH   7   8
ATOM      8  C   UNL     1      -3.515  -3.750   0.000  0.00  0.00    +0.129 C 
BRANCH   8   9
ATOM      9  C   UNL     1      -3.515  -5.250   0.000  0.00  0.00    +0.305 C 
ATOM     12  O   UNL     1      -4.814  -6.000   0.000  0.00  0.00    -0.251 OA
BRANCH   9  10
ATOM     10  O   UNL     1      -2.216  -6.000   0.000  0.00  0.00    -0.481 OA
ATOM     11  H   UNL     1      -2.216  -6.937   0.000  0.00  0.00    +0.295 HD
ENDBRANCH   9  10
ENDBRANCH   8   9
ENDBRANCH   7   8
TORSDOF 6