REMARK  Name = 240029
REMARK  10 active torsions:
REMARK  status: ('A' for Active; 'I' for Inactive)
REMARK    1  A    between atoms: C_5  and  C_13
REMARK    2  A    between atoms: C_6  and  C_12
REMARK    3  A    between atoms: C_8  and  C_15
REMARK    4  A    between atoms: O_9  and  C_10
REMARK    5  A    between atoms: O_9  and  C_13
REMARK    6  A    between atoms: C_10  and  C_11
REMARK    7  A    between atoms: C_16  and  C_17
REMARK    8  A    between atoms: C_17  and  O_19
REMARK    9  A    between atoms: O_19  and  C_20
REMARK   10  A    between atoms: C_20  and  C_21
REMARK                            x       y       z     vdW  Elec       q    Type
REMARK                         _______ _______ _______ _____ _____    ______ ____
ROOT
ATOM      1  N   UNL     1      -9.843  -4.500   0.000  0.00  0.00    -0.334 N 
ATOM      2  H   UNL     1      -9.843  -3.000   0.000  0.00  0.00    +0.168 HD
ATOM      3  C   UNL     1      -8.544  -5.250   0.000  0.00  0.00    +0.136 A 
ATOM     11  N   UNL     1      -8.544  -6.750   0.000  0.00  0.00    -0.192 NA
ATOM     12  C   UNL     1      -9.843  -7.500   0.000  0.00  0.00    +0.277 A 
ATOM     13  C   UNL     1     -11.142  -6.750   0.000  0.00  0.00    +0.046 A 
ATOM     14  C   UNL     1     -12.441  -7.500   0.000  0.00  0.00    +0.052 C 
ATOM     15  O   UNL     1      -9.843  -9.000   0.000  0.00  0.00    -0.265 OA
ATOM     16  C   UNL     1     -11.142  -5.250   0.000  0.00  0.00    +0.134 A 
ENDROOT
BRANCH   3   4
ATOM      4  C   UNL     1      -7.245  -4.500   0.000  0.00  0.00    +0.053 C 
ATOM      5  C   UNL     1      -5.946  -5.250   0.000  0.00  0.00    +0.095 C 
BRANCH   5   6
ATOM      6  C   UNL     1      -4.647  -4.500   0.000  0.00  0.00    +0.332 C 
ATOM     10  O   UNL     1      -4.647  -3.000   0.000  0.00  0.00    -0.246 OA
BRANCH   6   7
ATOM      7  O   UNL     1      -3.348  -5.250   0.000  0.00  0.00    -0.462 OA
BRANCH   7   8
ATOM      8  C   UNL     1      -2.049  -4.500   0.000  0.00  0.00    +0.229 C 
ATOM      9  C   UNL     1      -0.750  -5.250   0.000  0.00  0.00    +0.048 C 
ENDBRANCH   7   8
ENDBRANCH   6   7
ENDBRANCH   5   6
ENDBRANCH   3   4
BRANCH  16  17
ATOM     17  C   UNL     1     -12.441  -4.500   0.000  0.00  0.00    +0.356 C 
ATOM     18  O   UNL     1     -13.740  -5.250   0.000  0.00  0.00    -0.243 OA
BRANCH  17  19
ATOM     19  O   UNL     1     -12.441  -3.000   0.000  0.00  0.00    -0.460 OA
BRANCH  19  20
ATOM     20  C   UNL     1     -11.142  -2.250   0.000  0.00  0.00    +0.229 C 
ATOM     21  C   UNL     1     -11.142  -0.750   0.000  0.00  0.00    +0.048 C 
ENDBRANCH  19  20
ENDBRANCH  17  19
ENDBRANCH  16  17
TORSDOF 7