REMARK  Name = 293780
REMARK  1 active torsions:
REMARK  status: ('A' for Active; 'I' for Inactive)
REMARK    1  A    between atoms: C_14  and  C_16
REMARK                            x       y       z     vdW  Elec       q    Type
REMARK                         _______ _______ _______ _____ _____    ______ ____
ROOT
ATOM      1  C   UNL     1      -0.870   5.035   0.000  0.00  0.00    +0.004 A 
ATOM      2  C   UNL     1      -0.870   3.535   0.000  0.00  0.00    +0.002 A 
ATOM      3  C   UNL     1       0.429   2.785   0.000  0.00  0.00    +0.031 A 
ATOM      4  C   UNL     1       1.728   3.535   0.000  0.00  0.00    +0.106 A 
ATOM      5  N   UNL     1       2.901   2.600   0.000  0.00  0.00    -0.251 NA
ATOM      6  C   UNL     1       4.363   2.934   0.000  0.00  0.00    +0.123 C 
ATOM      7  C   UNL     1       5.014   4.285   0.000  0.00  0.00    +0.035 A 
ATOM      8  C   UNL     1       6.510   4.173   0.000  0.00  0.00    +0.013 A 
ATOM      9  C   UNL     1       7.355   5.412   0.000  0.00  0.00    +0.004 A 
ATOM     10  C   UNL     1       6.704   6.764   0.000  0.00  0.00    -0.047 A 
ATOM     11  C   UNL     1       7.549   8.003   0.000  0.00  0.00    +0.044 C 
ATOM     12  C   UNL     1       5.208   6.876   0.000  0.00  0.00    +0.050 A 
ATOM     13  C   UNL     1       4.363   5.637   0.000  0.00  0.00    +0.137 A 
ATOM     14  O   UNL     1       2.901   5.970   0.000  0.00  0.00    -0.453 OA
ATOM     15  C   UNL     1       1.728   5.035   0.000  0.00  0.00    +0.154 A 
ATOM     16  C   UNL     1       0.429   5.785   0.000  0.00  0.00    +0.048 A 
ENDROOT
TORSDOF 0