REMARK  Name = 281639
REMARK  3 active torsions:
REMARK  status: ('A' for Active; 'I' for Inactive)
REMARK    1  A    between atoms: C_5  and  C_11
REMARK    2  A    between atoms: C_10  and  C_11
REMARK    3  A    between atoms: N_12  and  N_13
REMARK                            x       y       z     vdW  Elec       q    Type
REMARK                         _______ _______ _______ _____ _____    ______ ____
ROOT
ATOM      1  H   UNL     1      -0.676   1.753   0.000  0.00  0.00    +0.186 HD
ATOM      2  N   UNL     1      -0.909   0.271   0.000  0.00  0.00    -0.301 N 
ATOM      3  N   UNL     1      -2.245  -0.411   0.000  0.00  0.00    -0.266 N 
ATOM      4  C   UNL     1      -2.010  -1.892   0.000  0.00  0.00    +0.265 A 
ATOM      5  O   UNL     1      -3.069  -2.954   0.000  0.00  0.00    -0.266 OA
ATOM      6  C   UNL     1      -0.528  -2.126   0.000  0.00  0.00    +0.094 A 
ATOM      7  H   UNL     1      -3.582   0.269   0.000  0.00  0.00    +0.190 HD
ATOM      8  C   UNL     1       0.152  -0.788   0.000  0.00  0.00    +0.047 A 
ENDROOT
BRANCH   8   9
ATOM      9  C   UNL     1       1.634  -0.553   0.000  0.00  0.00    +0.151 C 
BRANCH   9  10
ATOM     10  C   UNL     1       2.170   0.848   0.000  0.00  0.00    +0.232 C 
ATOM     11  N   UNL     1       3.651   1.084   0.000  0.00  0.00    -0.253 N 
ATOM     12  H   UNL     1       4.271   0.319   0.000  0.00  0.00    +0.169 HD
ATOM     16  O   UNL     1       1.225   2.013   0.000  0.00  0.00    -0.274 OA
BRANCH  11  13
ATOM     13  N   UNL     1       4.188   2.485   0.000  0.00  0.00    -0.254 NA
ATOM     14  H   UNL     1       3.545   3.277   0.000  0.00  0.00    +0.140 HD
ATOM     15  H   UNL     1       5.195   2.645   0.000  0.00  0.00    +0.140 HD
ENDBRANCH  11  13
ENDBRANCH   9  10
ENDBRANCH   8   9
TORSDOF 3