REMARK  Name = 403379
REMARK  0 active torsions:
REMARK  status: ('A' for Active; 'I' for Inactive)
REMARK                            x       y       z     vdW  Elec       q    Type
REMARK                         _______ _______ _______ _____ _____    ______ ____
ROOT
ATOM      1  N   UNL     1      -4.647  -0.750   0.000  0.00  0.00    -0.202 NA
ATOM      2  C   UNL     1      -5.946  -1.500   0.000  0.00  0.00    +0.082 A 
ATOM      3  C   UNL     1      -5.946  -3.000   0.000  0.00  0.00    +0.081 A 
ATOM      4  C   UNL     1      -4.647  -3.750   0.000  0.00  0.00    +0.326 A 
ATOM      5  N   UNL     1      -3.348  -3.000   0.000  0.00  0.00    -0.133 N 
ATOM      6  C   UNL     1      -2.049  -3.750   0.000  0.00  0.00    +0.385 C 
ATOM      7  N   UNL     1      -2.049  -5.250   0.000  0.00  0.00    -0.131 NA
ATOM      8  H   UNL     1      -2.902  -5.742   0.000  0.00  0.00    +0.306 HD
ATOM      9  N   UNL     1      -0.750  -3.000   0.000  0.00  0.00    -0.249 N 
ATOM     10  H   UNL     1      -0.750  -2.016   0.000  0.00  0.00    +0.241 HD
ATOM     11  H   UNL     1       0.103  -3.492   0.000  0.00  0.00    +0.241 HD
ATOM     12  O   UNL     1      -4.647  -5.250   0.000  0.00  0.00    -0.248 OA
ATOM     13  C   UNL     1      -7.245  -3.750   0.000  0.00  0.00    +0.017 A 
ATOM     14  C   UNL     1      -8.544  -3.000   0.000  0.00  0.00    +0.001 A 
ATOM     15  C   UNL     1      -8.544  -1.500   0.000  0.00  0.00    +0.002 A 
ATOM     16  C   UNL     1      -7.245  -0.750   0.000  0.00  0.00    +0.029 A 
ATOM     17  C   UNL     1      -3.348  -1.500   0.000  0.00  0.00    +0.265 A 
ATOM     18  N   UNL     1      -2.049  -0.750   0.000  0.00  0.00    -0.316 N 
ATOM     19  H   UNL     1      -2.049   0.234   0.000  0.00  0.00    +0.146 HD
ATOM     20  H   UNL     1      -1.196  -1.242   0.000  0.00  0.00    +0.146 HD
ENDROOT
TORSDOF 0