REMARK  Name = 292140
REMARK  2 active torsions:
REMARK  status: ('A' for Active; 'I' for Inactive)
REMARK    1  A    between atoms: C_4  and  N_7
REMARK    2  A    between atoms: N_18  and  C_20
REMARK                            x       y       z     vdW  Elec       q    Type
REMARK                         _______ _______ _______ _____ _____    ______ ____
ROOT
ATOM      8  N   UNL     1      -0.056   7.059   0.000  0.00  0.00    -0.216 N 
ATOM      9  C   UNL     1       1.158   7.941   0.000  0.00  0.00    +0.151 A 
ATOM     10  N   UNL     1       2.625   7.629   0.000  0.00  0.00    -0.291 N 
ATOM     11  H   UNL     1       3.089   6.202   0.000  0.00  0.00    +0.172 HD
ATOM     12  C   UNL     1       3.629   8.744   0.000  0.00  0.00    +0.335 A 
ATOM     13  O   UNL     1       5.096   8.432   0.000  0.00  0.00    -0.246 OA
ATOM     14  N   UNL     1       3.165  10.170   0.000  0.00  0.00    -0.228 N 
ATOM     22  C   UNL     1       1.698  10.482   0.000  0.00  0.00    +0.272 A 
ATOM     23  O   UNL     1       1.235  11.909   0.000  0.00  0.00    -0.266 OA
ATOM     24  C   UNL     1       0.695   9.367   0.000  0.00  0.00    +0.102 A 
ATOM     25  C   UNL     1      -0.805   9.367   0.000  0.00  0.00    +0.150 A 
ATOM     26  N   UNL     1      -1.269   7.941   0.000  0.00  0.00    -0.172 NA
ENDROOT
BRANCH   8   7
ATOM      1  C   UNL     1      -1.355   4.809   0.000  0.00  0.00    +0.029 A 
ATOM      2  C   UNL     1      -1.355   3.309   0.000  0.00  0.00    +0.022 A 
ATOM      3  C   UNL     1      -0.056   2.559   0.000  0.00  0.00    +0.041 A 
ATOM      4 CL   UNL     1      -0.056   1.059   0.000  0.00  0.00    -0.084 Cl
ATOM      5  C   UNL     1       1.244   3.309   0.000  0.00  0.00    +0.022 A 
ATOM      6  C   UNL     1       1.244   4.809   0.000  0.00  0.00    +0.029 A 
ATOM      7  C   UNL     1      -0.056   5.559   0.000  0.00  0.00    +0.068 A 
ENDBRANCH   8   7
BRANCH  14  15
ATOM     15  C   UNL     1       4.169  11.285   0.000  0.00  0.00    +0.056 A 
ATOM     16  C   UNL     1       5.636  10.973   0.000  0.00  0.00    +0.046 A 
ATOM     17  C   UNL     1       6.640  12.088   0.000  0.00  0.00    +0.043 A 
ATOM     18 CL   UNL     1       8.107  11.776   0.000  0.00  0.00    -0.083 Cl
ATOM     19  C   UNL     1       6.176  13.515   0.000  0.00  0.00    +0.020 A 
ATOM     20  C   UNL     1       4.709  13.826   0.000  0.00  0.00    +0.003 A 
ATOM     21  C   UNL     1       3.706  12.712   0.000  0.00  0.00    +0.026 A 
ENDBRANCH  14  15
TORSDOF 2