REMARK  Name = 335504
REMARK  9 active torsions:
REMARK  status: ('A' for Active; 'I' for Inactive)
REMARK    1  A    between atoms: O_2  and  C_15
REMARK    2  A    between atoms: O_2  and  C_18
REMARK    3  A    between atoms: C_4  and  C_19
REMARK    4  A    between atoms: C_5  and  N_17
REMARK    5  A    between atoms: C_13  and  C_15
REMARK    6  A    between atoms: C_18  and  C_20
REMARK    7  A    between atoms: C_20  and  O_21
REMARK    8  A    between atoms: C_20  and  C_22
REMARK    9  A    between atoms: C_22  and  O_23
REMARK                            x       y       z     vdW  Elec       q    Type
REMARK                         _______ _______ _______ _____ _____    ______ ____
ROOT
ATOM      1  N   UNL     1      -2.811   0.978   0.000  0.00  0.00    -0.239 NA
ATOM      2  C   UNL     1      -4.166   0.335   0.000  0.00  0.00    +0.113 A 
ATOM      3  C   UNL     1      -4.286  -1.160   0.000  0.00  0.00    +0.021 A 
ATOM      4  C   UNL     1      -3.051  -2.012   0.000  0.00  0.00    +0.020 A 
ATOM      5  C   UNL     1      -1.697  -1.368   0.000  0.00  0.00    +0.099 A 
ATOM     16  C   UNL     1      -1.576   0.127   0.000  0.00  0.00    +0.137 A 
ATOM     17  N   UNL     1      -0.221   0.770   0.000  0.00  0.00    -0.299 N 
ATOM     18  H   UNL     1       0.589   0.211   0.000  0.00  0.00    +0.154 HD
ENDROOT
BRANCH  17  19
ATOM     19  C   UNL     1      -0.101   2.265   0.000  0.00  0.00    +0.037 A 
ATOM     20  C   UNL     1      -1.336   3.117   0.000  0.00  0.00    +0.023 A 
ATOM     21  C   UNL     1      -1.216   4.612   0.000  0.00  0.00    +0.003 A 
ATOM     22  C   UNL     1       0.139   5.256   0.000  0.00  0.00    +0.020 A 
ATOM     23  C   UNL     1       1.374   4.404   0.000  0.00  0.00    +0.046 A 
ATOM     24 CL   UNL     1       2.729   5.048   0.000  0.00  0.00    -0.083 Cl
ATOM     25  C   UNL     1       1.254   2.909   0.000  0.00  0.00    -0.011 A 
ATOM     26  C   UNL     1       2.489   2.057   0.000  0.00  0.00    +0.047 C 
ENDBRANCH  17  19
BRANCH   5   6
ATOM      6  C   UNL     1      -0.462  -2.220   0.000  0.00  0.00    +0.343 C 
ATOM      7  O   UNL     1       0.893  -1.577   0.000  0.00  0.00    -0.245 OA
BRANCH   6   8
ATOM      8  O   UNL     1      -0.582  -3.715   0.000  0.00  0.00    -0.458 OA
BRANCH   8   9
ATOM      9  C   UNL     1       0.653  -4.567   0.000  0.00  0.00    +0.266 C 
BRANCH   9  10
ATOM     10  C   UNL     1       2.008  -3.924   0.000  0.00  0.00    +0.177 C 
BRANCH  10  14
ATOM     14  O   UNL     1       2.128  -2.428   0.000  0.00  0.00    -0.386 OA
ATOM     15  H   UNL     1       3.004  -2.012   0.000  0.00  0.00    +0.210 HD
ENDBRANCH  10  14
BRANCH  10  11
ATOM     11  C   UNL     1       3.243  -4.775   0.000  0.00  0.00    +0.190 C 
BRANCH  11  12
ATOM     12  O   UNL     1       4.597  -4.132   0.000  0.00  0.00    -0.392 OA
ATOM     13  H   UNL     1       5.396  -4.682   0.000  0.00  0.00    +0.210 HD
ENDBRANCH  11  12
ENDBRANCH  10  11
ENDBRANCH   9  10
ENDBRANCH   8   9
ENDBRANCH   6   8
ENDBRANCH   5   6
TORSDOF 8