REMARK  Name = 294150
REMARK  5 active torsions:
REMARK  status: ('A' for Active; 'I' for Inactive)
REMARK    1  A    between atoms: C_4  and  N_16
REMARK    2  A    between atoms: C_6  and  N_9
REMARK    3  A    between atoms: N_14  and  C_19
REMARK    4  A    between atoms: C_19  and  C_20
REMARK    5  A    between atoms: C_20  and  O_21
REMARK                            x       y       z     vdW  Elec       q    Type
REMARK                         _______ _______ _______ _____ _____    ______ ____
ROOT
ATOM      1  C   UNL     1       3.277   1.578   0.000  0.00  0.00    +0.099 A 
ATOM      2  N   UNL     1       4.777   1.578   0.000  0.00  0.00    -0.240 N 
ATOM      3  C   UNL     1       5.781   0.463   0.000  0.00  0.00    +0.394 A 
ATOM      7  C   UNL     1       7.151   1.073   0.000  0.00  0.00    +0.222 A 
ATOM     18  N   UNL     1       6.994   2.565   0.000  0.00  0.00    -0.206 NA
ATOM     19  C   UNL     1       5.527   2.877   0.000  0.00  0.00    +0.145 A 
ATOM     20  C   UNL     1       4.777   4.176   0.000  0.00  0.00    +0.047 A 
ATOM     21  C   UNL     1       3.277   4.176   0.000  0.00  0.00    +0.005 A 
ATOM     22  C   UNL     1       2.527   2.877   0.000  0.00  0.00    +0.018 A 
ENDROOT
BRANCH   7   8
ATOM      8  N   UNL     1       8.450   0.323   0.000  0.00  0.00    -0.306 N 
ATOM      9  C   UNL     1       8.450  -1.177   0.000  0.00  0.00    +0.122 C 
ATOM     10  C   UNL     1       9.749  -1.927   0.000  0.00  0.00    +0.103 C 
ATOM     11  N   UNL     1      11.048  -1.177   0.000  0.00  0.00    -0.297 NA
ATOM     16  C   UNL     1      11.048   0.323   0.000  0.00  0.00    +0.103 C 
ATOM     17  C   UNL     1       9.749   1.073   0.000  0.00  0.00    +0.122 C 
BRANCH  11  12
ATOM     12  C   UNL     1      12.347  -1.927   0.000  0.00  0.00    +0.112 C 
BRANCH  12  13
ATOM     13  C   UNL     1      13.646  -1.177   0.000  0.00  0.00    +0.171 C 
BRANCH  13  14
ATOM     14  O   UNL     1      14.945  -1.927   0.000  0.00  0.00    -0.394 OA
ATOM     15  H   UNL     1      14.945  -2.897   0.000  0.00  0.00    +0.209 HD
ENDBRANCH  13  14
ENDBRANCH  12  13
ENDBRANCH  11  12
ENDBRANCH   7   8
BRANCH   3   4
ATOM      4  N   UNL     1       5.469  -1.004   0.000  0.00  0.00    +0.103 N 
ATOM      5  O   UNL     1       6.583  -2.008   0.000  0.00  0.00    +0.043 OA
ATOM      6  O   UNL     1       4.042  -1.468   0.000  0.00  0.00    -0.575 OA
ENDBRANCH   3   4
TORSDOF 5