REMARK  Name = 331968
REMARK  1 active torsions:
REMARK  status: ('A' for Active; 'I' for Inactive)
REMARK    1  A    between atoms: C_11  and  C_14
REMARK                            x       y       z     vdW  Elec       q    Type
REMARK                         _______ _______ _______ _____ _____    ______ ____
ROOT
ATOM      1  C   UNL     1      -0.855   6.558   0.000  0.00  0.00    +0.000 A 
ATOM      2  C   UNL     1      -0.855   5.058   0.000  0.00  0.00    +0.001 A 
ATOM      3  C   UNL     1       0.444   4.308   0.000  0.00  0.00    +0.010 A 
ATOM      4  C   UNL     1       1.743   5.058   0.000  0.00  0.00    +0.006 A 
ATOM      5  C   UNL     1       3.170   4.595   0.000  0.00  0.00    +0.097 A 
ATOM      6  N   UNL     1       4.051   3.381   0.000  0.00  0.00    -0.173 NA
ATOM      7  N   UNL     1       5.478   3.845   0.000  0.00  0.00    -0.276 N 
ATOM      8  H   UNL     1       6.692   2.963   0.000  0.00  0.00    +0.189 HD
ATOM      9  C   UNL     1       5.478   5.345   0.000  0.00  0.00    +0.070 A 
ATOM     18  C   UNL     1       4.051   5.808   0.000  0.00  0.00    +0.010 A 
ATOM     19  C   UNL     1       3.170   7.022   0.000  0.00  0.00    +0.075 C 
ATOM     20  C   UNL     1       1.743   6.558   0.000  0.00  0.00    -0.034 A 
ATOM     21  C   UNL     1       0.444   7.308   0.000  0.00  0.00    +0.004 A 
ENDROOT
BRANCH   9  10
ATOM     10  C   UNL     1       6.692   6.226   0.000  0.00  0.00    +0.002 A 
ATOM     11  C   UNL     1       8.062   5.616   0.000  0.00  0.00    +0.011 A 
ATOM     12  C   UNL     1       9.275   6.498   0.000  0.00  0.00    +0.022 A 
ATOM     13  C   UNL     1       9.119   7.989   0.000  0.00  0.00    +0.059 A 
ATOM     14 CL   UNL     1      10.332   8.871   0.000  0.00  0.00    -0.082 Cl
ATOM     15  C   UNL     1       7.748   8.600   0.000  0.00  0.00    +0.060 A 
ATOM     16 CL   UNL     1       7.591  10.091   0.000  0.00  0.00    -0.082 Cl
ATOM     17  C   UNL     1       6.535   7.718   0.000  0.00  0.00    +0.031 A 
ENDBRANCH   9  10
TORSDOF 1