REMARK  Name = 21034
REMARK  4 active torsions:
REMARK  status: ('A' for Active; 'I' for Inactive)
REMARK    1  A    between atoms: C_5  and  N_14
REMARK    2  A    between atoms: C_7  and  C_17
REMARK    3  A    between atoms: C_10  and  C_11
REMARK    4  A    between atoms: C_11  and  O_13
REMARK                            x       y       z     vdW  Elec       q    Type
REMARK                         _______ _______ _______ _____ _____    ______ ____
ROOT
ATOM      1  O   UNL     1      -1.632  -2.537   0.000  0.00  0.00    -0.452 OA
ATOM      2  C   UNL     1      -0.750  -3.750   0.000  0.00  0.00    +0.466 C 
ATOM      3  O   UNL     1      -1.632  -4.963   0.000  0.00  0.00    -0.453 OA
ATOM      4  C   UNL     1      -3.058  -4.500   0.000  0.00  0.00    +0.167 A 
ATOM      5  C   UNL     1      -4.357  -5.250   0.000  0.00  0.00    +0.064 A 
ATOM      6  C   UNL     1      -5.656  -4.500   0.000  0.00  0.00    +0.056 A 
ATOM     13  C   UNL     1      -5.656  -3.000   0.000  0.00  0.00    +0.284 A 
ATOM     17  C   UNL     1      -4.357  -2.250   0.000  0.00  0.00    +0.134 A 
ATOM     18  C   UNL     1      -3.058  -3.000   0.000  0.00  0.00    +0.173 A 
ENDROOT
BRANCH  13  14
ATOM     14  N   UNL     1      -6.955  -2.250   0.000  0.00  0.00    +0.080 N 
ATOM     15  O   UNL     1      -6.955  -0.750   0.000  0.00  0.00    +0.041 OA
ATOM     16  O   UNL     1      -8.254  -3.000   0.000  0.00  0.00    -0.576 OA
ENDBRANCH  13  14
BRANCH   6   7
ATOM      7  C   UNL     1      -6.955  -5.250   0.000  0.00  0.00    +0.022 C 
ATOM      8  C   UNL     1      -6.955  -6.750   0.000  0.00  0.00    +0.092 C 
BRANCH   8   9
ATOM      9  C   UNL     1      -5.656  -7.500   0.000  0.00  0.00    +0.330 C 
ATOM     12  O   UNL     1      -5.656  -9.000   0.000  0.00  0.00    -0.246 OA
BRANCH   9  10
ATOM     10  O   UNL     1      -4.357  -6.750   0.000  0.00  0.00    -0.478 OA
ATOM     11  H   UNL     1      -3.546  -7.218   0.000  0.00  0.00    +0.295 HD
ENDBRANCH   9  10
ENDBRANCH   8   9
ENDBRANCH   6   7
TORSDOF 4