REMARK  Name = 40614
REMARK  4 active torsions:
REMARK  status: ('A' for Active; 'I' for Inactive)
REMARK    1  A    between atoms: C_3  and  C_17
REMARK    2  A    between atoms: C_8  and  C_13
REMARK    3  A    between atoms: C_13  and  C_14
REMARK    4  A    between atoms: C_14  and  O_16
REMARK                            x       y       z     vdW  Elec       q    Type
REMARK                         _______ _______ _______ _____ _____    ______ ____
ROOT
ATOM      3  C   UNL     1       6.221  -1.226   0.000  0.00  0.00    +0.023 C 
ATOM      4  C   UNL     1       6.221   0.275   0.000  0.00  0.00    +0.067 C 
ENDROOT
BRANCH   3   2
ATOM      1  C   UNL     1       4.922  -3.475   0.000  0.00  0.00    +0.008 A 
ATOM      2  C   UNL     1       4.922  -1.976   0.000  0.00  0.00    -0.024 A 
ATOM     15  C   UNL     1       3.623  -1.226   0.000  0.00  0.00    +0.008 A 
ATOM     16  C   UNL     1       2.324  -1.976   0.000  0.00  0.00    +0.001 A 
ATOM     17  C   UNL     1       2.324  -3.475   0.000  0.00  0.00    +0.000 A 
ATOM     18  C   UNL     1       3.623  -4.226   0.000  0.00  0.00    +0.001 A 
ENDBRANCH   3   2
BRANCH   4   9
ATOM      9  C   UNL     1       4.922   1.025   0.000  0.00  0.00    -0.011 A 
ATOM     10  C   UNL     1       3.623   0.275   0.000  0.00  0.00    +0.009 A 
ATOM     11  C   UNL     1       2.324   1.025   0.000  0.00  0.00    +0.001 A 
ATOM     12  C   UNL     1       2.324   2.525   0.000  0.00  0.00    +0.000 A 
ATOM     13  C   UNL     1       3.623   3.275   0.000  0.00  0.00    +0.001 A 
ATOM     14  C   UNL     1       4.922   2.525   0.000  0.00  0.00    +0.009 A 
ENDBRANCH   4   9
BRANCH   4   5
ATOM      5  C   UNL     1       7.520   1.025   0.000  0.00  0.00    +0.337 C 
ATOM      8  O   UNL     1       8.819   0.275   0.000  0.00  0.00    -0.245 OA
BRANCH   5   6
ATOM      6  O   UNL     1       7.520   2.525   0.000  0.00  0.00    -0.477 OA
ATOM      7  H   UNL     1       8.331   2.993   0.000  0.00  0.00    +0.295 HD
ENDBRANCH   5   6
ENDBRANCH   4   5
TORSDOF 4