REMARK  Name = 3753
REMARK  5 active torsions:
REMARK  status: ('A' for Active; 'I' for Inactive)
REMARK    1  A    between atoms: C_2  and  N_21
REMARK    2  A    between atoms: C_8  and  S_14
REMARK    3  A    between atoms: C_10  and  C_12
REMARK    4  A    between atoms: O_13  and  S_14
REMARK    5  A    between atoms: O_13  and  C_17
REMARK                            x       y       z     vdW  Elec       q    Type
REMARK                         _______ _______ _______ _____ _____    ______ ____
ROOT
ATOM      1  N   UNL     1       6.815   6.088   0.000  0.00  0.00    -0.215 NA
ATOM      2  C   UNL     1       5.516   6.838   0.000  0.00  0.00    +0.250 A 
ATOM     14  C   UNL     1       5.516   8.338   0.000  0.00  0.00    +0.092 A 
ATOM     15  C   UNL     1       6.815   9.088   0.000  0.00  0.00    +0.035 A 
ATOM     19  C   UNL     1       8.114   8.338   0.000  0.00  0.00    -0.005 A 
ATOM     20  C   UNL     1       9.541   8.802   0.000  0.00  0.00    +0.039 C 
ATOM     21  C   UNL     1      10.422   7.588   0.000  0.00  0.00    +0.011 C 
ATOM     22  C   UNL     1       9.541   6.374   0.000  0.00  0.00    +0.056 C 
ATOM     23  C   UNL     1       8.114   6.838   0.000  0.00  0.00    +0.050 A 
ENDROOT
BRANCH  15  16
ATOM     16  N   UNL     1       6.815  10.588   0.000  0.00  0.00    -0.358 N 
ATOM     17  H   UNL     1       5.963  11.080   0.000  0.00  0.00    +0.142 HD
ATOM     18  H   UNL     1       7.668  11.080   0.000  0.00  0.00    +0.142 HD
ENDBRANCH  15  16
BRANCH   2   3
ATOM      3  O   UNL     1       4.217   6.088   0.000  0.00  0.00    -0.322 OA
BRANCH   3   4
ATOM      4  S   UNL     1       2.918   6.838   0.000  0.00  0.00    +0.152 S 
ATOM      5  O   UNL     1       1.619   7.588   0.000  0.00  0.00    -0.131 OA
ATOM      6  O   UNL     1       3.668   8.137   0.000  0.00  0.00    -0.131 OA
BRANCH   4   7
ATOM      7  C   UNL     1       2.168   5.539   0.000  0.00  0.00    +0.128 A 
ATOM      8  C   UNL     1       2.918   4.240   0.000  0.00  0.00    +0.031 A 
ATOM      9  C   UNL     1       2.168   2.941   0.000  0.00  0.00    +0.005 A 
ATOM     10  C   UNL     1       0.668   2.941   0.000  0.00  0.00    -0.050 A 
ATOM     11  C   UNL     1      -0.082   1.642   0.000  0.00  0.00    +0.044 C 
ATOM     12  C   UNL     1      -0.082   4.240   0.000  0.00  0.00    +0.005 A 
ATOM     13  C   UNL     1       0.668   5.539   0.000  0.00  0.00    +0.031 A 
ENDBRANCH   4   7
ENDBRANCH   3   4
ENDBRANCH   2   3
TORSDOF 4