REMARK  Name = 22847
REMARK  4 active torsions:
REMARK  status: ('A' for Active; 'I' for Inactive)
REMARK    1  A    between atoms: C_2  and  N_6
REMARK    2  A    between atoms: C_2  and  C_10
REMARK    3  A    between atoms: C_7  and  C_9
REMARK    4  A    between atoms: C_10  and  O_12
REMARK                            x       y       z     vdW  Elec       q    Type
REMARK                         _______ _______ _______ _____ _____    ______ ____
ROOT
ATOM      1  C   UNL     1      -4.695  -2.662   0.000  0.00  0.00    +0.037 C 
ATOM      2  C   UNL     1      -5.909  -3.543   0.000  0.00  0.00    +0.003 C 
ATOM      3  C   UNL     1      -5.445  -4.970   0.000  0.00  0.00    +0.003 C 
ATOM      4  C   UNL     1      -3.945  -4.970   0.000  0.00  0.00    +0.037 C 
ATOM      5  C   UNL     1      -3.482  -3.543   0.000  0.00  0.00    +0.131 C 
ENDROOT
BRANCH   5  10
ATOM     10  N   UNL     1      -2.732  -2.244   0.000  0.00  0.00    -0.300 N 
ATOM     11  H   UNL     1      -1.747  -2.244   0.000  0.00  0.00    +0.150 HD
ATOM     12  C   UNL     1      -3.482  -0.945   0.000  0.00  0.00    +0.211 C 
ATOM     13  C   UNL     1      -4.981  -0.945   0.000  0.00  0.00    +0.109 C 
ATOM     14  O   UNL     1      -2.732   0.354   0.000  0.00  0.00    -0.276 OA
ENDBRANCH   5  10
BRANCH   5   6
ATOM      6  C   UNL     1      -2.111  -4.153   0.000  0.00  0.00    +0.328 C 
ATOM      9  O   UNL     1      -0.898  -3.272   0.000  0.00  0.00    -0.249 OA
BRANCH   6   7
ATOM      7  O   UNL     1      -1.954  -5.645   0.000  0.00  0.00    -0.479 OA
ATOM      8  H   UNL     1      -2.712  -6.196   0.000  0.00  0.00    +0.295 HD
ENDBRANCH   6   7
ENDBRANCH   5   6
TORSDOF 3