REMARK  Name = 36815
REMARK  3 active torsions:
REMARK  status: ('A' for Active; 'I' for Inactive)
REMARK    1  A    between atoms: N_1  and  C_13
REMARK    2  A    between atoms: C_5  and  N_16
REMARK    3  A    between atoms: C_6  and  N_17
REMARK                            x       y       z     vdW  Elec       q    Type
REMARK                         _______ _______ _______ _____ _____    ______ ____
ROOT
ATOM      1  N   UNL     1       0.275   4.024   0.000  0.00  0.00    -0.302 NA
ATOM      2  C   UNL     1      -1.025   3.275   0.000  0.00  0.00    +0.105 C 
ATOM      3  C   UNL     1       1.574   3.275   0.000  0.00  0.00    +0.103 C 
ATOM      4  C   UNL     1       2.873   4.024   0.000  0.00  0.00    +0.124 C 
ATOM      5  N   UNL     1       2.873   5.524   0.000  0.00  0.00    -0.283 N 
ATOM      6  C   UNL     1       4.172   6.274   0.000  0.00  0.00    +0.307 C 
ATOM      7  N   UNL     1       5.471   5.524   0.000  0.00  0.00    -0.269 N 
ATOM      8  H   UNL     1       5.471   4.540   0.000  0.00  0.00    +0.156 HD
ATOM     18  O   UNL     1       4.172   7.774   0.000  0.00  0.00    -0.252 OA
ATOM     19  C   UNL     1       1.574   6.274   0.000  0.00  0.00    +0.124 C 
ATOM     20  C   UNL     1       0.275   5.524   0.000  0.00  0.00    +0.103 C 
ENDROOT
BRANCH   7   9
ATOM      9  C   UNL     1       6.770   6.274   0.000  0.00  0.00    +0.035 A 
ATOM     10  C   UNL     1       8.069   5.524   0.000  0.00  0.00    +0.030 A 
ATOM     11  C   UNL     1       9.368   6.274   0.000  0.00  0.00    +0.086 A 
ATOM     12  C   UNL     1       9.368   7.774   0.000  0.00  0.00    +0.273 A 
ATOM     16  C   UNL     1       8.069   8.524   0.000  0.00  0.00    +0.086 A 
ATOM     17  C   UNL     1       6.770   7.774   0.000  0.00  0.00    +0.030 A 
BRANCH  12  13
ATOM     13  N   UNL     1      10.667   8.524   0.000  0.00  0.00    +0.080 N 
ATOM     14  O   UNL     1      11.966   7.774   0.000  0.00  0.00    +0.041 OA
ATOM     15  O   UNL     1      10.667  10.025   0.000  0.00  0.00    -0.576 OA
ENDBRANCH  12  13
ENDBRANCH   7   9
TORSDOF 2