REMARK  Name = 372146
REMARK  6 active torsions:
REMARK  status: ('A' for Active; 'I' for Inactive)
REMARK    1  A    between atoms: C_1  and  C_2
REMARK    2  A    between atoms: C_1  and  C_9
REMARK    3  A    between atoms: C_5  and  O_17
REMARK    4  A    between atoms: C_6  and  O_10
REMARK    5  A    between atoms: O_10  and  C_11
REMARK    6  A    between atoms: O_17  and  C_18
REMARK                            x       y       z     vdW  Elec       q    Type
REMARK                         _______ _______ _______ _____ _____    ______ ____
ROOT
ATOM      4  C   UNL     1       3.000   4.647   0.000  0.00  0.00    +0.166 A 
ATOM      5  N   UNL     1       3.750   3.348   0.000  0.00  0.00    -0.175 NA
ATOM      6  C   UNL     1       5.250   3.348   0.000  0.00  0.00    +0.330 A 
ATOM     14  N   UNL     1       6.000   4.647   0.000  0.00  0.00    -0.141 NA
ATOM     15  C   UNL     1       5.250   5.946   0.000  0.00  0.00    +0.330 A 
ATOM     23  N   UNL     1       3.750   5.946   0.000  0.00  0.00    -0.175 NA
ENDROOT
BRANCH   4   1
ATOM      1  C   UNL     1       1.500   4.647   0.000  0.00  0.00    -0.013 C 
ATOM      2  C   UNL     1       0.750   3.348   0.000  0.00  0.00    +0.047 C 
ATOM      3  C   UNL     1       0.750   5.946   0.000  0.00  0.00    +0.015 C 
ENDBRANCH   4   1
BRANCH   6   7
ATOM      7  O   UNL     1       6.000   2.049   0.000  0.00  0.00    -0.423 OA
BRANCH   7   8
ATOM      8  C   UNL     1       7.500   2.049   0.000  0.00  0.00    +0.132 A 
ATOM      9  C   UNL     1       8.250   0.750   0.000  0.00  0.00    +0.046 A 
ATOM     10  C   UNL     1       9.750   0.750   0.000  0.00  0.00    +0.004 A 
ATOM     11  C   UNL     1      10.500   2.049   0.000  0.00  0.00    +0.000 A 
ATOM     12  C   UNL     1       9.750   3.348   0.000  0.00  0.00    +0.004 A 
ATOM     13  C   UNL     1       8.250   3.348   0.000  0.00  0.00    +0.046 A 
ENDBRANCH   7   8
ENDBRANCH   6   7
BRANCH  15  16
ATOM     16  O   UNL     1       6.000   7.245   0.000  0.00  0.00    -0.423 OA
BRANCH  16  17
ATOM     17  C   UNL     1       7.500   7.245   0.000  0.00  0.00    +0.132 A 
ATOM     18  C   UNL     1       8.250   5.946   0.000  0.00  0.00    +0.046 A 
ATOM     19  C   UNL     1       9.750   5.946   0.000  0.00  0.00    +0.004 A 
ATOM     20  C   UNL     1      10.500   7.245   0.000  0.00  0.00    +0.000 A 
ATOM     21  C   UNL     1       9.750   8.544   0.000  0.00  0.00    +0.004 A 
ATOM     22  C   UNL     1       8.250   8.544   0.000  0.00  0.00    +0.046 A 
ENDBRANCH  16  17
ENDBRANCH  15  16
TORSDOF 5