REMARK  Name = 326182
REMARK  4 active torsions:
REMARK  status: ('A' for Active; 'I' for Inactive)
REMARK    1  A    between atoms: C_4  and  C_11
REMARK    2  A    between atoms: C_15  and  N_23
REMARK    3  A    between atoms: C_18  and  C_22
REMARK    4  A    between atoms: C_20  and  C_21
REMARK                            x       y       z     vdW  Elec       q    Type
REMARK                         _______ _______ _______ _____ _____    ______ ____
ROOT
ATOM      8  C   UNL     1      -9.789   2.518   0.000  0.00  0.00    +0.250 A 
ATOM      9  N   UNL     1      -9.623   1.027   0.000  0.00  0.00    -0.106 NA
ATOM     10  N   UNL     1      -8.154   0.724   0.000  0.00  0.00    -0.092 NA
ATOM     11  C   UNL     1      -7.412   2.028   0.000  0.00  0.00    +0.312 A 
ATOM     12  N   UNL     1      -5.921   2.194   0.000  0.00  0.00    -0.267 N 
ATOM     13  H   UNL     1      -5.526   3.096   0.000  0.00  0.00    +0.157 HD
ATOM     22  O   UNL     1      -8.422   3.136   0.000  0.00  0.00    -0.405 OA
ENDROOT
BRANCH   8   7
ATOM      1  C   UNL     1     -13.700   4.743   0.000  0.00  0.00    +0.166 A 
ATOM      2  O   UNL     1     -15.130   5.198   0.000  0.00  0.00    -0.453 OA
ATOM      3  C   UNL     1     -16.003   3.979   0.000  0.00  0.00    +0.466 C 
ATOM      4  O   UNL     1     -15.114   2.771   0.000  0.00  0.00    -0.453 OA
ATOM      5  C   UNL     1     -12.406   5.501   0.000  0.00  0.00    +0.050 A 
ATOM      6  C   UNL     1     -11.102   4.760   0.000  0.00  0.00    +0.017 A 
ATOM      7  C   UNL     1     -11.093   3.260   0.000  0.00  0.00    +0.042 A 
ATOM     23  C   UNL     1     -12.387   2.502   0.000  0.00  0.00    +0.062 A 
ATOM     24  C   UNL     1     -13.691   3.243   0.000  0.00  0.00    +0.167 A 
ENDBRANCH   8   7
BRANCH  12  14
ATOM     14  C   UNL     1      -5.032   0.986   0.000  0.00  0.00    +0.038 A 
ATOM     15  C   UNL     1      -5.633  -0.388   0.000  0.00  0.00    -0.029 A 
ATOM     16  C   UNL     1      -7.124  -0.554   0.000  0.00  0.00    +0.045 C 
ATOM     17  C   UNL     1      -4.744  -1.596   0.000  0.00  0.00    +0.008 A 
ATOM     18  C   UNL     1      -3.253  -1.430   0.000  0.00  0.00    -0.050 A 
ATOM     19  C   UNL     1      -2.364  -2.638   0.000  0.00  0.00    +0.044 C 
ATOM     20  C   UNL     1      -2.652  -0.056   0.000  0.00  0.00    +0.005 A 
ATOM     21  C   UNL     1      -3.541   1.152   0.000  0.00  0.00    +0.024 A 
ENDBRANCH  12  14
TORSDOF 2