REMARK  Name = 351674
REMARK  5 active torsions:
REMARK  status: ('A' for Active; 'I' for Inactive)
REMARK    1  A    between atoms: C_1  and  C_13
REMARK    2  A    between atoms: C_6  and  C_7
REMARK    3  A    between atoms: N_9  and  C_14
REMARK    4  A    between atoms: C_12  and  C_21
REMARK    5  A    between atoms: C_14  and  C_15
REMARK                            x       y       z     vdW  Elec       q    Type
REMARK                         _______ _______ _______ _____ _____    ______ ____
ROOT
ATOM      6  C   UNL     1       8.149   2.223   0.000  0.00  0.00    +0.127 C 
ATOM      7  N   UNL     1       8.899   0.924   0.000  0.00  0.00    -0.320 N 
ATOM     15  C   UNL     1      10.400   0.924   0.000  0.00  0.00    +0.090 C 
ATOM     16  C   UNL     1      11.150   2.223   0.000  0.00  0.00    +0.065 C 
ATOM     19  C   UNL     1      10.400   3.522   0.000  0.00  0.00    +0.018 C 
ATOM     20  C   UNL     1       8.899   3.522   0.000  0.00  0.00    +0.001 C 
ENDROOT
BRANCH   6   5
ATOM      1  C   UNL     1       3.650   2.223   0.000  0.00  0.00    -0.050 A 
ATOM      2  C   UNL     1       2.150   2.223   0.000  0.00  0.00    +0.044 C 
ATOM      3  C   UNL     1       4.399   0.924   0.000  0.00  0.00    +0.004 A 
ATOM      4  C   UNL     1       5.899   0.924   0.000  0.00  0.00    +0.006 A 
ATOM      5  C   UNL     1       6.649   2.223   0.000  0.00  0.00    -0.023 A 
ATOM     21  C   UNL     1       5.899   3.522   0.000  0.00  0.00    +0.006 A 
ATOM     22  C   UNL     1       4.399   3.522   0.000  0.00  0.00    +0.004 A 
ENDBRANCH   6   5
BRANCH  16  17
ATOM     17  C   UNL     1      12.650   2.223   0.000  0.00  0.00    +0.100 C 
ATOM     18  N   UNL     1      14.150   2.223   0.000  0.00  0.00    -0.191 NA
ENDBRANCH  16  17
BRANCH   7   8
ATOM      8  C   UNL     1       8.149  -0.375   0.000  0.00  0.00    +0.140 C 
BRANCH   8   9
ATOM      9  C   UNL     1       8.899  -1.674   0.000  0.00  0.00    -0.030 A 
ATOM     10  C   UNL     1       8.149  -2.973   0.000  0.00  0.00    +0.005 A 
ATOM     11  C   UNL     1       8.899  -4.272   0.000  0.00  0.00    +0.000 A 
ATOM     12  C   UNL     1      10.400  -4.272   0.000  0.00  0.00    +0.000 A 
ATOM     13  C   UNL     1      11.150  -2.973   0.000  0.00  0.00    +0.000 A 
ATOM     14  C   UNL     1      10.400  -1.674   0.000  0.00  0.00    +0.005 A 
ENDBRANCH   8   9
ENDBRANCH   7   8
TORSDOF 4