REMARK  Name = 32873
REMARK  8 active torsions:
REMARK  status: ('A' for Active; 'I' for Inactive)
REMARK    1  A    between atoms: C_3  and  O_11
REMARK    2  A    between atoms: C_4  and  N_12
REMARK    3  A    between atoms: C_6  and  AS_8
REMARK    4  A    between atoms: AS_8  and  O_9
REMARK    5  A    between atoms: AS_8  and  O_10
REMARK    6  A    between atoms: C_13  and  O_15
REMARK    7  A    between atoms: O_15  and  C_16
REMARK    8  A    between atoms: C_16  and  C_17
REMARK                            x       y       z     vdW  Elec       q    Type
REMARK                         _______ _______ _______ _____ _____    ______ ____
ROOT
ATOM      7  C   UNL     1      -7.245  -3.000   0.000  0.00  0.00    +0.000 A 
ATOM      8  C   UNL     1      -5.946  -3.750   0.000  0.00  0.00    +0.000 A 
ATOM      9  C   UNL     1      -4.647  -3.000   0.000  0.00  0.00    +0.000 A 
ATOM     10  C   UNL     1      -4.647  -1.500   0.000  0.00  0.00    +0.000 A 
ATOM     18  C   UNL     1      -5.946  -0.750   0.000  0.00  0.00    +0.000 A 
ATOM     19  C   UNL     1      -7.245  -1.500   0.000  0.00  0.00    +0.000 A 
ENDROOT
BRANCH  10  11
ATOM     11  N   UNL     1      -3.348  -0.750   0.000  0.00  0.00    +0.000 N 
ATOM     12  H   UNL     1      -3.348   0.234   0.000  0.00  0.00    +0.000 HD
ATOM     13  C   UNL     1      -2.049  -1.500   0.000  0.00  0.00    +0.000 C 
ATOM     17  O   UNL     1      -0.750  -0.750   0.000  0.00  0.00    +0.000 OA
BRANCH  13  14
ATOM     14  O   UNL     1      -2.049  -3.000   0.000  0.00  0.00    +0.000 OA
BRANCH  14  15
ATOM     15  C   UNL     1      -3.348  -3.750   0.000  0.00  0.00    +0.000 C 
ATOM     16  C   UNL     1      -3.348  -5.250   0.000  0.00  0.00    +0.000 C 
ENDBRANCH  14  15
ENDBRANCH  13  14
ENDBRANCH  10  11
BRANCH   7   2
ATOM      1  O   UNL     1     -10.838  -3.849   0.000  0.00  0.00    +0.000 OA
ATOM      2 AS   UNL     1      -9.389  -4.237   0.000  0.00  0.00    +0.000 As
BRANCH   2   3
ATOM      3  O   UNL     1      -9.000  -5.686   0.000  0.00  0.00    +0.000 OA
ATOM      4  H   UNL     1      -9.686  -6.372   0.000  0.00  0.00    +0.000 HD
ENDBRANCH   2   3
BRANCH   2   5
ATOM      5  O   UNL     1      -8.639  -2.938   0.000  0.00  0.00    +0.000 OA
ATOM      6  H   UNL     1      -7.669  -2.939   0.000  0.00  0.00    +0.000 HD
ENDBRANCH   2   5
ENDBRANCH   7   2
BRANCH  19  20
ATOM     20  O   UNL     1      -8.544  -0.750   0.000  0.00  0.00    +0.000 OA
ATOM     21  H   UNL     1      -8.544   0.187   0.000  0.00  0.00    +0.000 HD
ENDBRANCH  19  20
TORSDOF 7