REMARK  Name = 369070
REMARK  3 active torsions:
REMARK  status: ('A' for Active; 'I' for Inactive)
REMARK    1  A    between atoms: C_10  and  C_12
REMARK    2  A    between atoms: C_11  and  N_13
REMARK    3  A    between atoms: C_18  and  N_20
REMARK                            x       y       z     vdW  Elec       q    Type
REMARK                         _______ _______ _______ _____ _____    ______ ____
ROOT
ATOM      1  C   UNL     1      -8.718  -7.399   0.000  0.00  0.00    +0.002 A 
ATOM      2  C   UNL     1      -8.718  -8.900   0.000  0.00  0.00    +0.001 A 
ATOM      3  C   UNL     1      -7.419  -9.650   0.000  0.00  0.00    +0.017 A 
ATOM      4  C   UNL     1      -6.120  -8.899   0.000  0.00  0.00    +0.035 A 
ATOM      5  S   UNL     1      -4.821  -9.649   0.000  0.00  0.00    -0.063 S 
ATOM      6  C   UNL     1      -3.522  -8.899   0.000  0.00  0.00    +0.167 C 
ATOM      9  C   UNL     1      -3.522  -7.399   0.000  0.00  0.00    +0.075 C 
ATOM     19  N   UNL     1      -4.821  -6.649   0.000  0.00  0.00    -0.311 N 
ATOM     20  H   UNL     1      -4.821  -5.149   0.000  0.00  0.00    +0.152 HD
ATOM     21  C   UNL     1      -6.120  -7.399   0.000  0.00  0.00    +0.045 A 
ATOM     22  C   UNL     1      -7.419  -6.649   0.000  0.00  0.00    +0.024 A 
ENDROOT
BRANCH   9  10
ATOM     10  C   UNL     1      -2.223  -6.649   0.000  0.00  0.00    +0.005 A 
ATOM     11  C   UNL     1      -0.924  -7.399   0.000  0.00  0.00    +0.010 A 
ATOM     12  C   UNL     1       0.375  -6.649   0.000  0.00  0.00    +0.007 A 
ATOM     13  C   UNL     1       0.375  -5.149   0.000  0.00  0.00    +0.084 A 
ATOM     14  C   UNL     1      -0.924  -4.399   0.000  0.00  0.00    +0.274 A 
ATOM     18  C   UNL     1      -2.223  -5.149   0.000  0.00  0.00    +0.094 A 
BRANCH  14  15
ATOM     15  N   UNL     1      -0.924  -2.900   0.000  0.00  0.00    +0.080 N 
ATOM     16  O   UNL     1      -2.223  -2.150   0.000  0.00  0.00    +0.041 OA
ATOM     17  O   UNL     1       0.375  -2.150   0.000  0.00  0.00    -0.576 OA
ENDBRANCH  14  15
ENDBRANCH   9  10
BRANCH   6   7
ATOM      7  N   UNL     1      -2.223  -9.649   0.000  0.00  0.00    -0.022 NA
ATOM      8  O   UNL     1      -0.924  -8.899   0.000  0.00  0.00    -0.143 OA
ENDBRANCH   6   7
TORSDOF 3