REMARK  Name = 246999
REMARK  3 active torsions:
REMARK  status: ('A' for Active; 'I' for Inactive)
REMARK    1  A    between atoms: C_8  and  C_9
REMARK    2  A    between atoms: C_10  and  C_19
REMARK    3  A    between atoms: C_13  and  C_15
REMARK                            x       y       z     vdW  Elec       q    Type
REMARK                         _______ _______ _______ _____ _____    ______ ____
ROOT
ATOM      6  C   UNL     1       8.110   5.722   0.000  0.00  0.00    +0.072 A 
ATOM      7  C   UNL     1       8.860   4.423   0.000  0.00  0.00    +0.037 A 
ATOM      8  C   UNL     1      10.360   4.423   0.000  0.00  0.00    -0.007 A 
ATOM     14  C   UNL     1      11.110   5.722   0.000  0.00  0.00    +0.037 A 
ATOM     15  C   UNL     1      10.360   7.021   0.000  0.00  0.00    +0.072 A 
ATOM     22  N   UNL     1       8.860   7.021   0.000  0.00  0.00    -0.247 NA
ENDROOT
BRANCH   6   5
ATOM      1  F   UNL     1       2.110   5.722   0.000  0.00  0.00    -0.205 F 
ATOM      2  C   UNL     1       3.610   5.722   0.000  0.00  0.00    +0.123 A 
ATOM      3  C   UNL     1       4.360   4.423   0.000  0.00  0.00    +0.039 A 
ATOM      4  C   UNL     1       5.860   4.423   0.000  0.00  0.00    +0.013 A 
ATOM      5  C   UNL     1       6.610   5.722   0.000  0.00  0.00    +0.001 A 
ATOM     23  C   UNL     1       5.860   7.021   0.000  0.00  0.00    +0.013 A 
ATOM     24  C   UNL     1       4.360   7.021   0.000  0.00  0.00    +0.039 A 
ENDBRANCH   6   5
BRANCH  15  16
ATOM     16  C   UNL     1      11.110   8.320   0.000  0.00  0.00    +0.000 A 
ATOM     17  C   UNL     1      12.610   8.320   0.000  0.00  0.00    +0.010 A 
ATOM     18  C   UNL     1      13.360   9.619   0.000  0.00  0.00    +0.001 A 
ATOM     19  C   UNL     1      12.610  10.918   0.000  0.00  0.00    +0.000 A 
ATOM     20  C   UNL     1      11.110  10.918   0.000  0.00  0.00    +0.001 A 
ATOM     21  C   UNL     1      10.360   9.619   0.000  0.00  0.00    +0.010 A 
ENDBRANCH  15  16
BRANCH   8   9
ATOM      9  C   UNL     1      11.110   3.124   0.000  0.00  0.00    +0.019 A 
ATOM     10  S   UNL     1      10.500   1.754   0.000  0.00  0.00    -0.097 S 
ATOM     11  C   UNL     1      11.615   0.750   0.000  0.00  0.00    +0.046 A 
ATOM     12  C   UNL     1      12.914   1.500   0.000  0.00  0.00    +0.008 A 
ATOM     13  C   UNL     1      12.602   2.967   0.000  0.00  0.00    +0.016 A 
ENDBRANCH   8   9
TORSDOF 3