REMARK  Name = 215276
REMARK  7 active torsions:
REMARK  status: ('A' for Active; 'I' for Inactive)
REMARK    1  A    between atoms: C_1  and  C_7
REMARK    2  A    between atoms: C_2  and  C_9
REMARK    3  A    between atoms: C_6  and  C_8
REMARK    4  A    between atoms: C_9  and  C_11
REMARK    5  A    between atoms: C_11  and  C_12
REMARK    6  A    between atoms: C_12  and  C_13
REMARK    7  A    between atoms: C_13  and  O_15
REMARK                            x       y       z     vdW  Elec       q    Type
REMARK                         _______ _______ _______ _____ _____    ______ ____
ROOT
ATOM      1  C   UNL     1       2.049  -3.000   0.000  0.00  0.00    -0.040 A 
ATOM      2  C   UNL     1       2.049  -1.500   0.000  0.00  0.00    +0.044 C 
ATOM      3  C   UNL     1       0.750  -3.750   0.000  0.00  0.00    +0.004 A 
ATOM      4  C   UNL     1       0.750  -5.250   0.000  0.00  0.00    +0.003 A 
ATOM      5  C   UNL     1       2.049  -6.000   0.000  0.00  0.00    -0.050 A 
ATOM      6  C   UNL     1       2.049  -7.500   0.000  0.00  0.00    +0.044 C 
ATOM      7  C   UNL     1       3.348  -5.250   0.000  0.00  0.00    +0.015 A 
ATOM      8  C   UNL     1       3.348  -3.750   0.000  0.00  0.00    +0.021 A 
ENDROOT
BRANCH   8   9
ATOM      9  C   UNL     1       4.647  -3.000   0.000  0.00  0.00    +0.164 C 
ATOM     16  O   UNL     1       4.647  -1.500   0.000  0.00  0.00    -0.292 OA
BRANCH   9  10
ATOM     10  C   UNL     1       5.946  -3.750   0.000  0.00  0.00    +0.091 C 
BRANCH  10  11
ATOM     11  C   UNL     1       7.245  -3.000   0.000  0.00  0.00    +0.128 C 
BRANCH  11  12
ATOM     12  C   UNL     1       7.245  -1.500   0.000  0.00  0.00    +0.305 C 
ATOM     15  O   UNL     1       5.946  -0.750   0.000  0.00  0.00    -0.251 OA
BRANCH  12  13
ATOM     13  O   UNL     1       8.544  -0.750   0.000  0.00  0.00    -0.481 OA
ATOM     14  H   UNL     1       9.356  -1.218   0.000  0.00  0.00    +0.295 HD
ENDBRANCH  12  13
ENDBRANCH  11  12
ENDBRANCH  10  11
ENDBRANCH   9  10
ENDBRANCH   8   9
TORSDOF 5