REMARK  Name = 321491
REMARK  3 active torsions:
REMARK  status: ('A' for Active; 'I' for Inactive)
REMARK    1  A    between atoms: C_10  and  S_12
REMARK    2  A    between atoms: S_12  and  C_26
REMARK    3  A    between atoms: C_15  and  C_26
REMARK                            x       y       z     vdW  Elec       q    Type
REMARK                         _______ _______ _______ _____ _____    ______ ____
ROOT
ATOM      1  C   UNL     1      -2.324   7.024   0.000  0.00  0.00    +0.002 A 
ATOM      2  C   UNL     1      -2.324   5.524   0.000  0.00  0.00    +0.002 A 
ATOM      3  C   UNL     1      -1.025   4.774   0.000  0.00  0.00    +0.028 A 
ATOM      4  C   UNL     1       0.275   5.524   0.000  0.00  0.00    +0.072 A 
ATOM      5  N   UNL     1       1.574   4.774   0.000  0.00  0.00    -0.312 N 
ATOM      6  C   UNL     1       1.885   3.307   0.000  0.00  0.00    +0.092 A 
ATOM      7  C   UNL     1       3.377   3.151   0.000  0.00  0.00    +0.020 A 
ATOM      8  C   UNL     1       3.987   4.521   0.000  0.00  0.00    +0.030 A 
ATOM      9  C   UNL     1       2.873   5.524   0.000  0.00  0.00    +0.079 A 
ATOM     10  C   UNL     1       2.873   7.024   0.000  0.00  0.00    +0.122 A 
ATOM     24  N   UNL     1       1.574   7.774   0.000  0.00  0.00    -0.237 NA
ATOM     25  C   UNL     1       0.275   7.024   0.000  0.00  0.00    +0.089 A 
ATOM     26  C   UNL     1      -1.025   7.774   0.000  0.00  0.00    +0.030 A 
ENDROOT
BRANCH  10  11
ATOM     11  S   UNL     1       4.172   7.774   0.000  0.00  0.00    -0.099 S 
BRANCH  11  12
ATOM     12  C   UNL     1       5.471   7.024   0.000  0.00  0.00    +0.114 C 
BRANCH  12  13
ATOM     13  C   UNL     1       6.770   7.774   0.000  0.00  0.00    +0.006 A 
ATOM     14  C   UNL     1       8.069   7.024   0.000  0.00  0.00    +0.028 A 
ATOM     15  C   UNL     1       9.368   7.774   0.000  0.00  0.00    +0.042 A 
ATOM     16  C   UNL     1       9.368   9.274   0.000  0.00  0.00    +0.029 A 
ATOM     17  C   UNL     1       8.069  10.025   0.000  0.00  0.00    +0.022 A 
ATOM     18  C   UNL     1       8.069  11.525   0.000  0.00  0.00    +0.202 C 
ATOM     19  O   UNL     1       6.770  12.275   0.000  0.00  0.00    -0.339 OA
ATOM     20  C   UNL     1       5.471  11.525   0.000  0.00  0.00    +0.394 C 
ATOM     21  O   UNL     1       5.471  10.025   0.000  0.00  0.00    -0.466 OA
ATOM     22 CL   UNL     1      10.667   7.024   0.000  0.00  0.00    -0.084 Cl
ATOM     23  C   UNL     1       6.770   9.274   0.000  0.00  0.00    +0.133 A 
ENDBRANCH  12  13
ENDBRANCH  11  12
ENDBRANCH  10  11
TORSDOF 3