REMARK  Name = 270071
REMARK  7 active torsions:
REMARK  status: ('A' for Active; 'I' for Inactive)
REMARK    1  A    between atoms: N_9  and  C_22
REMARK    2  A    between atoms: N_10  and  N_23
REMARK    3  A    between atoms: S_11  and  C_14
REMARK    4  A    between atoms: S_11  and  N_23
REMARK    5  A    between atoms: C_17  and  N_24
REMARK    6  A    between atoms: C_19  and  N_25
REMARK    7  A    between atoms: C_20  and  C_26
REMARK                            x       y       z     vdW  Elec       q    Type
REMARK                         _______ _______ _______ _____ _____    ______ ____
ROOT
ATOM     11  S   UNL     1       9.406 -11.142   0.000  0.00  0.00    +0.087 S 
ATOM     26  O   UNL     1       9.406 -12.642   0.000  0.00  0.00    -0.149 OA
ATOM     27  O   UNL     1       9.406  -9.642   0.000  0.00  0.00    -0.149 OA
ENDROOT
BRANCH  11  12
ATOM     12  C   UNL     1      10.906 -11.142   0.000  0.00  0.00    +0.112 A 
ATOM     13  C   UNL     1      11.656 -12.441   0.000  0.00  0.00    +0.053 A 
ATOM     14  C   UNL     1      13.156 -12.441   0.000  0.00  0.00    +0.048 A 
ATOM     18  C   UNL     1      13.906 -11.142   0.000  0.00  0.00    +0.054 A 
ATOM     24  C   UNL     1      13.156  -9.843   0.000  0.00  0.00    +0.027 A 
ATOM     25  C   UNL     1      11.656  -9.843   0.000  0.00  0.00    +0.031 A 
BRANCH  18  19
ATOM     19  N   UNL     1      15.406 -11.142   0.000  0.00  0.00    -0.284 N 
ATOM     20  H   UNL     1      15.899 -11.995   0.000  0.00  0.00    +0.155 HD
ATOM     21  C   UNL     1      16.156  -9.843   0.000  0.00  0.00    +0.214 C 
ATOM     22  C   UNL     1      17.656  -9.843   0.000  0.00  0.00    +0.109 C 
ATOM     23  O   UNL     1      15.406  -8.544   0.000  0.00  0.00    -0.276 OA
ENDBRANCH  18  19
BRANCH  14  15
ATOM     15  N   UNL     1      13.906 -13.740   0.000  0.00  0.00    -0.356 N 
ATOM     16  H   UNL     1      14.891 -13.740   0.000  0.00  0.00    +0.142 HD
ATOM     17  H   UNL     1      13.414 -14.593   0.000  0.00  0.00    +0.142 HD
ENDBRANCH  14  15
ENDBRANCH  11  12
BRANCH  11   9
ATOM      9  N   UNL     1       7.906 -11.142   0.000  0.00  0.00    -0.134 N 
ATOM     10  H   UNL     1       7.414 -11.995   0.000  0.00  0.00    +0.197 HD
BRANCH   9   8
ATOM      1  C   UNL     1       0.750  -9.093   0.000  0.00  0.00    +0.001 A 
ATOM      2  C   UNL     1       0.750 -10.593   0.000  0.00  0.00    +0.002 A 
ATOM      3  C   UNL     1       2.049 -11.343   0.000  0.00  0.00    +0.027 A 
ATOM      4  C   UNL     1       3.348 -10.593   0.000  0.00  0.00    +0.057 A 
ATOM      5  N   UNL     1       4.775 -11.057   0.000  0.00  0.00    -0.321 N 
ATOM      6  C   UNL     1       5.238 -12.483   0.000  0.00  0.00    +0.151 C 
ATOM      7  C   UNL     1       5.656  -9.843   0.000  0.00  0.00    +0.192 A 
ATOM      8  N   UNL     1       7.156  -9.843   0.000  0.00  0.00    -0.141 NA
ATOM     28  S   UNL     1       4.775  -8.630   0.000  0.00  0.00    -0.048 S 
ATOM     29  C   UNL     1       3.348  -9.093   0.000  0.00  0.00    +0.039 A 
ATOM     30  C   UNL     1       2.049  -8.343   0.000  0.00  0.00    +0.017 A 
ENDBRANCH   9   8
ENDBRANCH  11   9
TORSDOF 5