REMARK  Name = 289359
REMARK  9 active torsions:
REMARK  status: ('A' for Active; 'I' for Inactive)
REMARK    1  A    between atoms: O_1  and  C_2
REMARK    2  A    between atoms: O_1  and  C_22
REMARK    3  A    between atoms: C_4  and  O_5
REMARK    4  A    between atoms: O_5  and  C_23
REMARK    5  A    between atoms: C_14  and  C_19
REMARK    6  A    between atoms: C_17  and  C_24
REMARK    7  A    between atoms: C_19  and  O_21
REMARK    8  A    between atoms: O_21  and  C_26
REMARK    9  A    between atoms: C_26  and  C_27
REMARK                            x       y       z     vdW  Elec       q    Type
REMARK                         _______ _______ _______ _____ _____    ______ ____
ROOT
ATOM      3  C   UNL     1       4.272   1.400   0.000  0.00  0.00    +0.162 A 
ATOM      4  C   UNL     1       4.272  -0.101   0.000  0.00  0.00    +0.050 A 
ATOM      5  C   UNL     1       5.571  -0.851   0.000  0.00  0.00    +0.014 A 
ATOM      6  C   UNL     1       6.870  -0.101   0.000  0.00  0.00    +0.010 A 
ATOM      7  C   UNL     1       8.169  -0.851   0.000  0.00  0.00    +0.059 A 
ATOM      8  N   UNL     1       8.169  -2.350   0.000  0.00  0.00    -0.359 N 
ATOM      9  C   UNL     1       9.468  -3.100   0.000  0.00  0.00    +0.105 A 
ATOM     10  C   UNL     1      10.767  -2.350   0.000  0.00  0.00    +0.115 A 
ATOM     13  C   UNL     1      10.767  -0.851   0.000  0.00  0.00    +0.207 A 
ATOM     14  O   UNL     1      12.066  -0.100   0.000  0.00  0.00    -0.286 OA
ATOM     15  H   UNL     1       6.870  -3.100   0.000  0.00  0.00    +0.165 HD
ATOM     16  C   UNL     1       9.468  -0.100   0.000  0.00  0.00    +0.061 A 
ATOM     17  C   UNL     1       9.468   1.400   0.000  0.00  0.00    +0.072 A 
ATOM     23  C   UNL     1       8.169   2.150   0.000  0.00  0.00    +0.028 A 
ATOM     24  C   UNL     1       6.870   1.400   0.000  0.00  0.00    +0.030 A 
ATOM     25  C   UNL     1       5.571   2.150   0.000  0.00  0.00    +0.169 A 
ENDROOT
BRANCH   3   1
ATOM      1  O   UNL     1       2.973   2.150   0.000  0.00  0.00    -0.491 OA
ATOM      2  C   UNL     1       2.973   3.650   0.000  0.00  0.00    +0.277 C 
ENDBRANCH   3   1
BRANCH  10  11
ATOM     11  C   UNL     1      12.066  -3.100   0.000  0.00  0.00    +0.104 C 
ATOM     12  N   UNL     1      13.365  -3.850   0.000  0.00  0.00    -0.191 NA
ENDBRANCH  10  11
BRANCH  17  18
ATOM     18  C   UNL     1      10.767   2.150   0.000  0.00  0.00    +0.340 C 
ATOM     22  O   UNL     1      10.767   3.650   0.000  0.00  0.00    -0.245 OA
BRANCH  18  19
ATOM     19  O   UNL     1      12.066   1.400   0.000  0.00  0.00    -0.461 OA
BRANCH  19  20
ATOM     20  C   UNL     1      13.365   2.150   0.000  0.00  0.00    +0.229 C 
ATOM     21  C   UNL     1      13.365   3.650   0.000  0.00  0.00    +0.048 C 
ENDBRANCH  19  20
ENDBRANCH  18  19
ENDBRANCH  17  18
BRANCH  25  26
ATOM     26  O   UNL     1       5.571   3.650   0.000  0.00  0.00    -0.491 OA
ATOM     27  C   UNL     1       6.870   4.399   0.000  0.00  0.00    +0.277 C 
ENDBRANCH  25  26
TORSDOF 6