REMARK  Name = 287065
REMARK  1 active torsions:
REMARK  status: ('A' for Active; 'I' for Inactive)
REMARK    1  A    between atoms: C_1  and  N_11
REMARK                            x       y       z     vdW  Elec       q    Type
REMARK                         _______ _______ _______ _____ _____    ______ ____
ROOT
ATOM      1  C   UNL     1       3.623   0.275   0.000  0.00  0.00    +0.275 A 
ATOM      5  C   UNL     1       3.623  -1.226   0.000  0.00  0.00    +0.086 A 
ATOM      6  C   UNL     1       4.922  -1.976   0.000  0.00  0.00    +0.034 A 
ATOM      7  C   UNL     1       6.221  -1.226   0.000  0.00  0.00    +0.068 A 
ATOM      8  N   UNL     1       7.647  -1.689   0.000  0.00  0.00    -0.326 N 
ATOM      9  H   UNL     1       8.111  -3.116   0.000  0.00  0.00    +0.169 HD
ATOM     10  C   UNL     1       8.529  -0.475   0.000  0.00  0.00    +0.191 A 
ATOM     11  N   UNL     1      10.029  -0.475   0.000  0.00  0.00    -0.329 N 
ATOM     12  H   UNL     1      10.521   0.377   0.000  0.00  0.00    +0.145 HD
ATOM     13  H   UNL     1      10.521  -1.328   0.000  0.00  0.00    +0.145 HD
ATOM     14  N   UNL     1       7.647   0.738   0.000  0.00  0.00    -0.215 NA
ATOM     15  C   UNL     1       6.221   0.275   0.000  0.00  0.00    +0.097 A 
ATOM     16  C   UNL     1       4.922   1.025   0.000  0.00  0.00    +0.114 A 
ENDROOT
BRANCH   1   2
ATOM      2  N   UNL     1       2.324   1.025   0.000  0.00  0.00    +0.080 N 
ATOM      3  O   UNL     1       2.324   2.525   0.000  0.00  0.00    +0.041 OA
ATOM      4  O   UNL     1       1.025   0.275   0.000  0.00  0.00    -0.576 OA
ENDBRANCH   1   2
TORSDOF 1