REMARK  Name = 214029
REMARK  2 active torsions:
REMARK  status: ('A' for Active; 'I' for Inactive)
REMARK    1  A    between atoms: C_6  and  N_18
REMARK    2  A    between atoms: C_13  and  C_19
REMARK                            x       y       z     vdW  Elec       q    Type
REMARK                         _______ _______ _______ _____ _____    ______ ____
ROOT
ATOM      7  C   UNL     1      -3.522  -4.399   0.000  0.00  0.00    +0.248 C 
ATOM      8  O   UNL     1      -4.821  -3.650   0.000  0.00  0.00    -0.270 OA
ATOM      9  N   UNL     1      -3.522  -5.899   0.000  0.00  0.00    -0.281 N 
ATOM     10  H   UNL     1      -2.669  -6.392   0.000  0.00  0.00    +0.155 HD
ENDROOT
BRANCH   9  11
ATOM     11  C   UNL     1      -4.821  -6.649   0.000  0.00  0.00    +0.034 A 
ATOM     12  C   UNL     1      -4.821  -8.149   0.000  0.00  0.00    +0.024 A 
ATOM     13  C   UNL     1      -6.120  -8.899   0.000  0.00  0.00    +0.010 A 
ATOM     14  C   UNL     1      -7.419  -8.149   0.000  0.00  0.00    -0.018 A 
ATOM     15  C   UNL     1      -8.718  -8.899   0.000  0.00  0.00    +0.008 A 
ATOM     16  C   UNL     1     -10.017  -8.149   0.000  0.00  0.00    +0.001 A 
ATOM     17  C   UNL     1     -10.017  -6.649   0.000  0.00  0.00    +0.001 A 
ATOM     18  C   UNL     1      -8.718  -5.899   0.000  0.00  0.00    +0.008 A 
ATOM     19  C   UNL     1      -7.419  -6.649   0.000  0.00  0.00    -0.016 A 
ATOM     20  C   UNL     1      -6.120  -5.899   0.000  0.00  0.00    +0.031 A 
ENDBRANCH   9  11
BRANCH   7   6
ATOM      1  F   UNL     1       1.674  -4.399   0.000  0.00  0.00    -0.205 F 
ATOM      2  C   UNL     1       0.375  -3.650   0.000  0.00  0.00    +0.124 A 
ATOM      3  C   UNL     1       0.375  -2.150   0.000  0.00  0.00    +0.038 A 
ATOM      4  C   UNL     1      -0.924  -1.400   0.000  0.00  0.00    +0.004 A 
ATOM      5  C   UNL     1      -2.223  -2.150   0.000  0.00  0.00    +0.013 A 
ATOM      6  C   UNL     1      -2.223  -3.650   0.000  0.00  0.00    +0.040 A 
ATOM     21  C   UNL     1      -0.924  -4.399   0.000  0.00  0.00    +0.051 A 
ENDBRANCH   7   6
TORSDOF 2