REMARK  Name = 288686
REMARK  1 active torsions:
REMARK  status: ('A' for Active; 'I' for Inactive)
REMARK    1  A    between atoms: C_7  and  C_12
REMARK                            x       y       z     vdW  Elec       q    Type
REMARK                         _______ _______ _______ _____ _____    ______ ____
ROOT
ATOM      1  C   UNL     1       1.758  -0.044   0.000  0.00  0.00    +0.001 A 
ATOM      2  C   UNL     1       1.758  -1.545   0.000  0.00  0.00    +0.001 A 
ATOM      3  C   UNL     1       3.057  -2.295   0.000  0.00  0.00    +0.011 A 
ATOM      4  C   UNL     1       4.356  -1.545   0.000  0.00  0.00    +0.019 A 
ATOM      5  C   UNL     1       5.655  -2.295   0.000  0.00  0.00    +0.148 A 
ATOM      8  N   UNL     1       6.954  -1.545   0.000  0.00  0.00    -0.243 NA
ATOM      9  C   UNL     1       6.954  -0.044   0.000  0.00  0.00    +0.132 A 
ATOM     10  C   UNL     1       5.655   0.706   0.000  0.00  0.00    +0.067 A 
ATOM     11 CL   UNL     1       5.655   2.205   0.000  0.00  0.00    -0.081 Cl
ATOM     12  C   UNL     1       4.356  -0.044   0.000  0.00  0.00    +0.005 A 
ATOM     13  C   UNL     1       3.057   0.706   0.000  0.00  0.00    +0.010 A 
ENDROOT
BRANCH   5   6
ATOM      6  C   UNL     1       5.655  -3.795   0.000  0.00  0.00    +0.120 C 
ATOM      7  N   UNL     1       5.655  -5.295   0.000  0.00  0.00    -0.189 NA
ENDBRANCH   5   6
TORSDOF 1