REMARK  Name = 34794
REMARK  1 active torsions:
REMARK  status: ('A' for Active; 'I' for Inactive)
REMARK    1  A    between atoms: C_2  and  C_7
REMARK                            x       y       z     vdW  Elec       q    Type
REMARK                         _______ _______ _______ _____ _____    ______ ____
ROOT
ATOM      1  C   UNL     1      -2.372  -0.945   0.000  0.00  0.00    +0.232 A 
ATOM      2  N   UNL     1      -0.945  -0.481   0.000  0.00  0.00    -0.326 N 
ATOM      3  H   UNL     1      -0.740   0.481   0.000  0.00  0.00    +0.145 HD
ATOM      4  H   UNL     1      -0.213  -1.140   0.000  0.00  0.00    +0.145 HD
ATOM      5  N   UNL     1      -2.835  -2.372   0.000  0.00  0.00    -0.136 NA
ATOM      6  N   UNL     1      -4.335  -2.372   0.000  0.00  0.00    -0.257 N 
ATOM      7  H   UNL     1      -5.217  -3.585   0.000  0.00  0.00    +0.191 HD
ATOM      8  C   UNL     1      -4.799  -0.945   0.000  0.00  0.00    +0.158 A 
ATOM     15  N   UNL     1      -3.585  -0.063   0.000  0.00  0.00    -0.194 NA
ENDROOT
BRANCH   8   9
ATOM      9  C   UNL     1      -6.225  -0.481   0.000  0.00  0.00    +0.019 A 
ATOM     10  C   UNL     1      -6.537   0.986   0.000  0.00  0.00    +0.011 A 
ATOM     11  C   UNL     1      -7.964   1.449   0.000  0.00  0.00    +0.001 A 
ATOM     12  C   UNL     1      -9.078   0.446   0.000  0.00  0.00    +0.000 A 
ATOM     13  C   UNL     1      -8.767  -1.022   0.000  0.00  0.00    +0.001 A 
ATOM     14  C   UNL     1      -7.340  -1.485   0.000  0.00  0.00    +0.011 A 
ENDBRANCH   8   9
TORSDOF 1