REMARK  Name = 211356
REMARK  8 active torsions:
REMARK  status: ('A' for Active; 'I' for Inactive)
REMARK    1  A    between atoms: O_5  and  C_10
REMARK    2  A    between atoms: O_5  and  C_23
REMARK    3  A    between atoms: C_7  and  C_21
REMARK    4  A    between atoms: C_8  and  C_20
REMARK    5  A    between atoms: C_13  and  N_24
REMARK    6  A    between atoms: C_16  and  C_18
REMARK    7  A    between atoms: C_21  and  C_22
REMARK    8  A    between atoms: C_22  and  C_23
REMARK                            x       y       z     vdW  Elec       q    Type
REMARK                         _______ _______ _______ _____ _____    ______ ____
ROOT
ATOM      1  N   UNL     1     -11.316  -8.899   0.000  0.00  0.00    -0.177 NA
ATOM      2  C   UNL     1     -10.017  -8.149   0.000  0.00  0.00    +0.278 A 
ATOM      3  C   UNL     1      -8.718  -8.899   0.000  0.00  0.00    +0.038 A 
ATOM     17  C   UNL     1      -8.718 -10.400   0.000  0.00  0.00    +0.024 A 
ATOM     18  C   UNL     1      -7.419 -11.150   0.000  0.00  0.00    +0.064 C 
ATOM     19  N   UNL     1     -10.017 -11.150   0.000  0.00  0.00    -0.331 N 
ATOM     20  H   UNL     1     -10.017 -12.650   0.000  0.00  0.00    +0.168 HD
ATOM     21  O   UNL     1     -10.017  -6.649   0.000  0.00  0.00    -0.265 OA
ATOM     22  C   UNL     1     -11.316 -10.400   0.000  0.00  0.00    +0.203 A 
ATOM     23  N   UNL     1     -12.615 -11.150   0.000  0.00  0.00    -0.256 N 
ATOM     24  H   UNL     1     -12.615 -12.134   0.000  0.00  0.00    +0.158 HD
ATOM     25  C   UNL     1     -13.914 -10.400   0.000  0.00  0.00    +0.216 C 
ATOM     26  C   UNL     1     -15.213 -11.150   0.000  0.00  0.00    +0.109 C 
ATOM     27  O   UNL     1     -13.914  -8.899   0.000  0.00  0.00    -0.276 OA
ENDROOT
BRANCH   3   4
ATOM      4  C   UNL     1      -7.419  -8.149   0.000  0.00  0.00    +0.046 C 
BRANCH   4   5
ATOM      5  C   UNL     1      -7.419  -6.649   0.000  0.00  0.00    +0.046 C 
BRANCH   5   6
ATOM      6  C   UNL     1      -6.120  -5.899   0.000  0.00  0.00    +0.229 C 
BRANCH   6   7
ATOM      7  O   UNL     1      -4.821  -6.649   0.000  0.00  0.00    -0.492 OA
BRANCH   7   8
ATOM      8  C   UNL     1      -3.522  -5.899   0.000  0.00  0.00    +0.121 A 
ATOM      9  C   UNL     1      -2.223  -6.649   0.000  0.00  0.00    +0.052 A 
ATOM     10  C   UNL     1      -0.924  -5.899   0.000  0.00  0.00    +0.088 A 
ATOM     11  C   UNL     1      -0.924  -4.399   0.000  0.00  0.00    +0.273 A 
ATOM     15  C   UNL     1      -2.223  -3.650   0.000  0.00  0.00    +0.088 A 
ATOM     16  C   UNL     1      -3.522  -4.399   0.000  0.00  0.00    +0.052 A 
BRANCH  11  12
ATOM     12  N   UNL     1       0.375  -3.650   0.000  0.00  0.00    +0.080 N 
ATOM     13  O   UNL     1       1.674  -4.399   0.000  0.00  0.00    +0.041 OA
ATOM     14  O   UNL     1       0.375  -2.150   0.000  0.00  0.00    -0.576 OA
ENDBRANCH  11  12
ENDBRANCH   7   8
ENDBRANCH   6   7
ENDBRANCH   5   6
ENDBRANCH   4   5
ENDBRANCH   3   4
TORSDOF 6