REMARK  Name = 341902
REMARK  2 active torsions:
REMARK  status: ('A' for Active; 'I' for Inactive)
REMARK    1  A    between atoms: C_5  and  O_12
REMARK    2  A    between atoms: C_7  and  C_13
REMARK                            x       y       z     vdW  Elec       q    Type
REMARK                         _______ _______ _______ _____ _____    ______ ____
ROOT
ATOM      1  C   UNL     1       2.185   1.563   0.000  0.00  0.00    +0.005 C 
ATOM      2  C   UNL     1       2.185   0.063   0.000  0.00  0.00    +0.005 C 
ATOM      3  C   UNL     1       3.484  -0.688   0.000  0.00  0.00    +0.037 C 
ATOM      4  C   UNL     1       4.783   0.063   0.000  0.00  0.00    +0.002 C 
ATOM      5  C   UNL     1       6.209  -0.401   0.000  0.00  0.00    +0.117 C 
ATOM      8  C   UNL     1       7.091   0.813   0.000  0.00  0.00    +0.257 C 
ATOM      9  O   UNL     1       8.591   0.813   0.000  0.00  0.00    -0.269 OA
ATOM     10  N   UNL     1       6.209   2.026   0.000  0.00  0.00    -0.280 N 
ATOM     11  H   UNL     1       6.673   3.453   0.000  0.00  0.00    +0.152 HD
ATOM     12  C   UNL     1       4.783   1.563   0.000  0.00  0.00    +0.157 C 
ATOM     15  C   UNL     1       3.484   2.313   0.000  0.00  0.00    +0.060 C 
ENDROOT
BRANCH   5   6
ATOM      6  C   UNL     1       6.673  -1.828   0.000  0.00  0.00    +0.104 C 
ATOM      7  N   UNL     1       7.136  -3.254   0.000  0.00  0.00    -0.191 NA
ENDBRANCH   5   6
BRANCH  12  13
ATOM     13  O   UNL     1       4.939   3.054   0.000  0.00  0.00    -0.368 OA
ATOM     14  H   UNL     1       5.826   3.449   0.000  0.00  0.00    +0.212 HD
ENDBRANCH  12  13
TORSDOF 2