REMARK  Name = 280492
REMARK  8 active torsions:
REMARK  status: ('A' for Active; 'I' for Inactive)
REMARK    1  A    between atoms: C_8  and  N_15
REMARK    2  A    between atoms: C_9  and  C_10
REMARK    3  A    between atoms: C_10  and  O_12
REMARK    4  A    between atoms: O_12  and  C_16
REMARK    5  A    between atoms: C_14  and  N_15
REMARK    6  A    between atoms: C_14  and  N_18
REMARK    7  A    between atoms: C_16  and  C_17
REMARK    8  A    between atoms: N_18  and  C_19
REMARK                            x       y       z     vdW  Elec       q    Type
REMARK                         _______ _______ _______ _____ _____    ______ ____
ROOT
ATOM      1  C   UNL     1      -6.304  -6.123   0.000  0.00  0.00    +0.005 C 
ATOM      2  C   UNL     1      -6.304  -7.623   0.000  0.00  0.00    +0.005 C 
ATOM      3  C   UNL     1      -5.005  -8.373   0.000  0.00  0.00    +0.043 C 
ATOM      4  C   UNL     1      -3.706  -7.623   0.000  0.00  0.00    -0.004 A 
ATOM      5  S   UNL     1      -2.280  -8.086   0.000  0.00  0.00    -0.077 S 
ATOM      6  C   UNL     1      -1.398  -6.873   0.000  0.00  0.00    +0.086 A 
ATOM     14  C   UNL     1      -2.280  -5.659   0.000  0.00  0.00    +0.091 A 
ATOM     20  C   UNL     1      -3.706  -6.123   0.000  0.00  0.00    -0.021 A 
ATOM     21  C   UNL     1      -5.005  -5.373   0.000  0.00  0.00    +0.037 C 
ENDROOT
BRANCH   6   7
ATOM      7  N   UNL     1       0.102  -6.873   0.000  0.00  0.00    -0.291 N 
ATOM      8  H   UNL     1       0.594  -6.020   0.000  0.00  0.00    +0.154 HD
BRANCH   7   9
ATOM      9  C   UNL     1       0.852  -8.172   0.000  0.00  0.00    +0.135 C 
ATOM     13  S   UNL     1       2.352  -8.172   0.000  0.00  0.00    -0.019 S 
BRANCH   9  10
ATOM     10  N   UNL     1       0.102  -9.471   0.000  0.00  0.00    -0.329 N 
ATOM     11  H   UNL     1       0.594 -10.323   0.000  0.00  0.00    +0.147 HD
ATOM     12  C   UNL     1      -1.398  -9.471   0.000  0.00  0.00    +0.127 C 
ENDBRANCH   9  10
ENDBRANCH   7   9
ENDBRANCH   6   7
BRANCH  14  15
ATOM     15  C   UNL     1      -1.816  -4.233   0.000  0.00  0.00    +0.342 C 
ATOM     19  O   UNL     1      -2.820  -3.118   0.000  0.00  0.00    -0.245 OA
BRANCH  15  16
ATOM     16  O   UNL     1      -0.349  -3.921   0.000  0.00  0.00    -0.461 OA
BRANCH  16  17
ATOM     17  C   UNL     1       0.115  -2.494   0.000  0.00  0.00    +0.229 C 
ATOM     18  C   UNL     1      -0.889  -1.379   0.000  0.00  0.00    +0.048 C 
ENDBRANCH  16  17
ENDBRANCH  15  16
ENDBRANCH  14  15
TORSDOF 6