REMARK  Name = 333544
REMARK  11 active torsions:
REMARK  status: ('A' for Active; 'I' for Inactive)
REMARK    1  A    between atoms: N_1  and  S_4
REMARK    2  A    between atoms: N_1  and  C_17
REMARK    3  A    between atoms: N_1  and  C_18
REMARK    4  A    between atoms: S_4  and  C_5
REMARK    5  A    between atoms: C_10  and  C_21
REMARK    6  A    between atoms: C_11  and  C_17
REMARK    7  A    between atoms: C_18  and  C_19
REMARK    8  A    between atoms: C_18  and  C_20
REMARK    9  A    between atoms: C_21  and  C_22
REMARK   10  A    between atoms: C_21  and  C_23
REMARK   11  A    between atoms: C_21  and  C_24
REMARK                            x       y       z     vdW  Elec       q    Type
REMARK                         _______ _______ _______ _____ _____    ______ ____
ROOT
ATOM     12  S   UNL     1      -8.084   0.811   0.000  0.00  0.00    +0.096 S 
ATOM     23  O   UNL     1      -8.084   2.311   0.000  0.00  0.00    -0.150 OA
ATOM     24  O   UNL     1      -8.084  -0.689   0.000  0.00  0.00    -0.150 OA
ENDROOT
BRANCH  12  13
ATOM     13  C   UNL     1      -6.584   0.811   0.000  0.00  0.00    +0.286 A 
ATOM     14  N   UNL     1      -5.702  -0.402   0.000  0.00  0.00    -0.309 N 
ATOM     15  H   UNL     1      -6.166  -1.829   0.000  0.00  0.00    +0.170 HD
ATOM     16  C   UNL     1      -4.276   0.061   0.000  0.00  0.00    +0.138 A 
ATOM     21  N   UNL     1      -4.276   1.561   0.000  0.00  0.00    -0.132 NA
ATOM     22  N   UNL     1      -5.702   2.025   0.000  0.00  0.00    -0.108 NA
BRANCH  16  17
ATOM     17  C   UNL     1      -3.062  -0.821   0.000  0.00  0.00    +0.022 C 
ATOM     18  C   UNL     1      -1.849  -1.702   0.000  0.00  0.00    +0.019 C 
ATOM     19  C   UNL     1      -2.181   0.393   0.000  0.00  0.00    +0.019 C 
ATOM     20  C   UNL     1      -3.944  -2.034   0.000  0.00  0.00    +0.019 C 
ENDBRANCH  16  17
ENDBRANCH  12  13
BRANCH  12   1
ATOM      1  N   UNL     1      -9.584   0.811   0.000  0.00  0.00    -0.167 NA
BRANCH   1   2
ATOM      2  C   UNL     1     -10.334  -0.488   0.000  0.00  0.00    +0.074 C 
ATOM      3  C   UNL     1      -9.584  -1.787   0.000  0.00  0.00    +0.025 C 
ATOM      4  C   UNL     1     -11.834  -0.488   0.000  0.00  0.00    +0.025 C 
ENDBRANCH   1   2
BRANCH   1   5
ATOM      5  C   UNL     1     -10.334   2.110   0.000  0.00  0.00    +0.145 C 
BRANCH   5   6
ATOM      6  C   UNL     1      -9.370   3.259   0.000  0.00  0.00    -0.032 A 
ATOM      7  C   UNL     1      -8.857   1.850   0.000  0.00  0.00    +0.005 A 
ATOM      8  C   UNL     1      -9.821   0.701   0.000  0.00  0.00    +0.000 A 
ATOM      9  C   UNL     1     -11.298   0.961   0.000  0.00  0.00    +0.000 A 
ATOM     10  C   UNL     1     -11.811   2.371   0.000  0.00  0.00    +0.000 A 
ATOM     11  C   UNL     1     -10.847   3.520   0.000  0.00  0.00    +0.005 A 
ENDBRANCH   5   6
ENDBRANCH   1   5
ENDBRANCH  12   1
TORSDOF 6