REMARK  Name = 367469
REMARK  4 active torsions:
REMARK  status: ('A' for Active; 'I' for Inactive)
REMARK    1  A    between atoms: N_6  and  C_8
REMARK    2  A    between atoms: C_8  and  S_9
REMARK    3  A    between atoms: S_9  and  C_21
REMARK    4  A    between atoms: C_10  and  C_21
REMARK                            x       y       z     vdW  Elec       q    Type
REMARK                         _______ _______ _______ _____ _____    ______ ____
ROOT
ATOM      8  C   UNL     1       5.899  -6.120   0.000  0.00  0.00    +0.006 A 
ATOM      9  C   UNL     1       6.649  -7.419   0.000  0.00  0.00    +0.028 A 
ATOM     10  C   UNL     1       8.149  -7.419   0.000  0.00  0.00    +0.042 A 
ATOM     11 CL   UNL     1       8.899  -8.718   0.000  0.00  0.00    -0.084 Cl
ATOM     12  C   UNL     1       8.899  -6.120   0.000  0.00  0.00    +0.029 A 
ATOM     13  C   UNL     1       8.149  -4.821   0.000  0.00  0.00    +0.022 A 
ATOM     14  C   UNL     1       8.899  -3.522   0.000  0.00  0.00    +0.202 C 
ATOM     15  O   UNL     1       8.149  -2.223   0.000  0.00  0.00    -0.339 OA
ATOM     16  C   UNL     1       6.649  -2.223   0.000  0.00  0.00    +0.394 C 
ATOM     17  O   UNL     1       5.899  -3.522   0.000  0.00  0.00    -0.466 OA
ATOM     18  C   UNL     1       6.649  -4.821   0.000  0.00  0.00    +0.133 A 
ENDROOT
BRANCH   8   7
ATOM      7  C   UNL     1       4.399  -6.120   0.000  0.00  0.00    +0.115 C 
BRANCH   7   6
ATOM      6  S   UNL     1       3.886  -4.711   0.000  0.00  0.00    -0.098 S 
BRANCH   6   5
ATOM      5  C   UNL     1       2.409  -4.450   0.000  0.00  0.00    +0.110 C 
ATOM     19  S   UNL     1       1.445  -5.599   0.000  0.00  0.00    -0.028 S 
BRANCH   5   4
ATOM      1  S   UNL     1       0.870  -0.222   0.000  0.00  0.00    -0.158 S 
ATOM      2  C   UNL     1       2.347  -0.482   0.000  0.00  0.00    +0.088 C 
ATOM      3  C   UNL     1       2.860  -1.892   0.000  0.00  0.00    +0.117 C 
ATOM      4  N   UNL     1       1.896  -3.041   0.000  0.00  0.00    -0.317 N 
ATOM     20  C   UNL     1       0.419  -2.780   0.000  0.00  0.00    +0.117 C 
ATOM     21  C   UNL     1      -0.094  -1.371   0.000  0.00  0.00    +0.088 C 
ENDBRANCH   5   4
ENDBRANCH   6   5
ENDBRANCH   7   6
ENDBRANCH   8   7
TORSDOF 4