REMARK  Name = 34012
REMARK  4 active torsions:
REMARK  status: ('A' for Active; 'I' for Inactive)
REMARK    1  A    between atoms: C_4  and  C_7
REMARK    2  A    between atoms: C_7  and  C_8
REMARK    3  A    between atoms: C_8  and  C_9
REMARK    4  A    between atoms: C_8  and  C_10
REMARK                            x       y       z     vdW  Elec       q    Type
REMARK                         _______ _______ _______ _____ _____    ______ ____
ROOT
ATOM      1  N   UNL     1       0.601   4.504   0.000  0.00  0.00    -0.126 NA
ATOM      2  C   UNL     1       1.065   3.078   0.000  0.00  0.00    +0.179 A 
ATOM      3  N   UNL     1       0.183   1.864   0.000  0.00  0.00    -0.336 N 
ATOM      4  H   UNL     1       0.583   0.965   0.000  0.00  0.00    +0.144 HD
ATOM      5  H   UNL     1      -0.796   1.967   0.000  0.00  0.00    +0.144 HD
ATOM      6  S   UNL     1       2.565   3.078   0.000  0.00  0.00    -0.036 S 
ATOM      7  C   UNL     1       3.028   4.504   0.000  0.00  0.00    +0.104 A 
ATOM     12  N   UNL     1       1.815   5.386   0.000  0.00  0.00    -0.145 NA
ENDROOT
BRANCH   7   8
ATOM      8  C   UNL     1       4.455   4.968   0.000  0.00  0.00    +0.068 C 
BRANCH   8   9
ATOM      9  C   UNL     1       5.569   3.964   0.000  0.00  0.00    -0.011 C 
ATOM     10  C   UNL     1       5.258   2.497   0.000  0.00  0.00    +0.007 C 
ATOM     11  C   UNL     1       6.996   4.428   0.000  0.00  0.00    +0.007 C 
ENDBRANCH   8   9
ENDBRANCH   7   8
TORSDOF 2