REMARK  Name = 41092
REMARK  3 active torsions:
REMARK  status: ('A' for Active; 'I' for Inactive)
REMARK    1  A    between atoms: C_4  and  N_13
REMARK    2  A    between atoms: C_5  and  C_16
REMARK    3  A    between atoms: C_8  and  C_17
REMARK                            x       y       z     vdW  Elec       q    Type
REMARK                         _______ _______ _______ _____ _____    ______ ____
ROOT
ATOM      1  N   UNL     1      -3.028  -0.665   0.000  0.00  0.00    -0.171 NA
ATOM      2  C   UNL     1      -2.363   0.679   0.000  0.00  0.00    +0.392 A 
ATOM      6  C   UNL     1      -0.878   0.462   0.000  0.00  0.00    +0.140 A 
ATOM     15  N   UNL     1      -0.627  -1.017   0.000  0.00  0.00    -0.339 N 
ATOM     16  H   UNL     1       0.718  -1.682   0.000  0.00  0.00    +0.167 HD
ATOM     17  C   UNL     1      -1.955  -1.713   0.000  0.00  0.00    +0.204 A 
ENDROOT
BRANCH   2   3
ATOM      3  N   UNL     1      -3.059   2.008   0.000  0.00  0.00    +0.103 N 
ATOM      4  O   UNL     1      -2.257   3.275   0.000  0.00  0.00    +0.043 OA
ATOM      5  O   UNL     1      -4.558   2.069   0.000  0.00  0.00    -0.575 OA
ENDBRANCH   2   3
BRANCH   6   7
ATOM      7  C   UNL     1      -0.032   1.700   0.000  0.00  0.00    +0.035 C 
ATOM      8  C   UNL     1       1.463   1.587   0.000  0.00  0.00    +0.010 C 
BRANCH   8   9
ATOM      9  C   UNL     1       2.113   0.235   0.000  0.00  0.00    -0.025 A 
ATOM     10  C   UNL     1       3.609   0.122   0.000  0.00  0.00    +0.008 A 
ATOM     11  C   UNL     1       4.258  -1.230   0.000  0.00  0.00    +0.001 A 
ATOM     12  C   UNL     1       3.412  -2.469   0.000  0.00  0.00    +0.000 A 
ATOM     13  C   UNL     1       1.917  -2.356   0.000  0.00  0.00    +0.001 A 
ATOM     14  C   UNL     1       1.267  -1.004   0.000  0.00  0.00    +0.008 A 
ENDBRANCH   8   9
ENDBRANCH   6   7
TORSDOF 3