REMARK  Name = 339161
REMARK  6 active torsions:
REMARK  status: ('A' for Active; 'I' for Inactive)
REMARK    1  A    between atoms: C_10  and  C_13
REMARK    2  A    between atoms: N_16  and  C_19
REMARK    3  A    between atoms: C_17  and  C_26
REMARK    4  A    between atoms: O_18  and  C_26
REMARK    5  A    between atoms: O_18  and  C_27
REMARK    6  A    between atoms: C_27  and  C_29
REMARK                            x       y       z     vdW  Elec       q    Type
REMARK                         _______ _______ _______ _____ _____    ______ ____
ROOT
ATOM      7  C   UNL     1       8.169  -0.851   0.000  0.00  0.00    +0.117 A 
ATOM      8  C   UNL     1       8.326  -2.342   0.000  0.00  0.00    +0.058 A 
ATOM      9  C   UNL     1       9.793  -2.654   0.000  0.00  0.00    +0.083 A 
ATOM     15  N   UNL     1      10.543  -1.355   0.000  0.00  0.00    -0.233 N 
ATOM     23  N   UNL     1       9.540  -0.240   0.000  0.00  0.00    -0.164 NA
ENDROOT
BRANCH   7   6
ATOM      1  C   UNL     1       1.674   1.400   0.000  0.00  0.00    +0.002 A 
ATOM      2  C   UNL     1       1.674  -0.101   0.000  0.00  0.00    +0.002 A 
ATOM      3  C   UNL     1       2.973  -0.851   0.000  0.00  0.00    +0.030 A 
ATOM      4  C   UNL     1       4.272  -0.101   0.000  0.00  0.00    +0.088 A 
ATOM      5  N   UNL     1       5.571  -0.851   0.000  0.00  0.00    -0.238 NA
ATOM      6  C   UNL     1       6.870  -0.101   0.000  0.00  0.00    +0.156 A 
ATOM     24  C   UNL     1       6.870   1.400   0.000  0.00  0.00    +0.277 A 
ATOM     25  O   UNL     1       8.169   2.150   0.000  0.00  0.00    -0.266 OA
ATOM     26  N   UNL     1       5.571   2.150   0.000  0.00  0.00    -0.319 N 
ATOM     27  H   UNL     1       5.571   3.650   0.000  0.00  0.00    +0.169 HD
ATOM     28  C   UNL     1       4.272   1.400   0.000  0.00  0.00    +0.068 A 
ATOM     29  C   UNL     1       2.973   2.150   0.000  0.00  0.00    +0.028 A 
ENDBRANCH   7   6
BRANCH  15  16
ATOM     16  C   UNL     1      12.035  -1.198   0.000  0.00  0.00    +0.066 A 
ATOM     17  C   UNL     1      12.917  -2.412   0.000  0.00  0.00    +0.029 A 
ATOM     18  C   UNL     1      14.409  -2.255   0.000  0.00  0.00    +0.022 A 
ATOM     19  C   UNL     1      15.019  -0.885   0.000  0.00  0.00    +0.041 A 
ATOM     20 CL   UNL     1      16.510  -0.728   0.000  0.00  0.00    -0.084 Cl
ATOM     21  C   UNL     1      14.137   0.329   0.000  0.00  0.00    +0.022 A 
ATOM     22  C   UNL     1      12.645   0.172   0.000  0.00  0.00    +0.029 A 
ENDBRANCH  15  16
BRANCH   9  10
ATOM     10  C   UNL     1      10.403  -4.024   0.000  0.00  0.00    +0.287 C 
BRANCH  10  11
ATOM     11  O   UNL     1       9.522  -5.238   0.000  0.00  0.00    -0.459 OA
BRANCH  11  12
ATOM     12  C   UNL     1       8.030  -5.081   0.000  0.00  0.00    +0.304 C 
ATOM     13  C   UNL     1       7.148  -6.295   0.000  0.00  0.00    +0.136 C 
ATOM     14  O   UNL     1       7.420  -3.711   0.000  0.00  0.00    -0.251 OA
ENDBRANCH  11  12
ENDBRANCH  10  11
ENDBRANCH   9  10
TORSDOF 5