REMARK  Name = 348970
REMARK  6 active torsions:
REMARK  status: ('A' for Active; 'I' for Inactive)
REMARK    1  A    between atoms: C_6  and  C_7
REMARK    2  A    between atoms: N_13  and  C_18
REMARK    3  A    between atoms: N_14  and  C_15
REMARK    4  A    between atoms: C_15  and  C_16
REMARK    5  A    between atoms: C_15  and  C_17
REMARK    6  A    between atoms: C_18  and  C_19
REMARK                            x       y       z     vdW  Elec       q    Type
REMARK                         _______ _______ _______ _____ _____    ______ ____
ROOT
ATOM      5  C   UNL     1       5.250   4.647   0.000  0.00  0.00    +0.167 A 
ATOM      6  N   UNL     1       6.000   3.348   0.000  0.00  0.00    -0.195 NA
ATOM      7  C   UNL     1       7.500   3.348   0.000  0.00  0.00    +0.220 A 
ATOM      8  N   UNL     1       8.250   2.049   0.000  0.00  0.00    -0.311 N 
ATOM      9  H   UNL     1       7.758   1.196   0.000  0.00  0.00    +0.149 HD
ATOM     13  N   UNL     1       8.250   4.647   0.000  0.00  0.00    -0.181 NA
ATOM     14  C   UNL     1       7.500   5.946   0.000  0.00  0.00    +0.220 A 
ATOM     15  N   UNL     1       8.250   7.245   0.000  0.00  0.00    -0.314 N 
ATOM     16  H   UNL     1       7.758   8.098   0.000  0.00  0.00    +0.149 HD
ATOM     19  N   UNL     1       6.000   5.946   0.000  0.00  0.00    -0.195 NA
ENDROOT
BRANCH   5   4
ATOM      1  N   UNL     1       0.750   4.647   0.000  0.00  0.00    -0.263 NA
ATOM      2  C   UNL     1       1.500   3.348   0.000  0.00  0.00    +0.111 A 
ATOM      3  C   UNL     1       3.000   3.348   0.000  0.00  0.00    +0.031 A 
ATOM      4  C   UNL     1       3.750   4.647   0.000  0.00  0.00    +0.022 A 
ATOM     20  C   UNL     1       3.000   5.946   0.000  0.00  0.00    +0.031 A 
ATOM     21  C   UNL     1       1.500   5.946   0.000  0.00  0.00    +0.111 A 
ENDBRANCH   5   4
BRANCH   8  10
ATOM     10  C   UNL     1       9.750   2.049   0.000  0.00  0.00    +0.067 C 
ATOM     11  C   UNL     1      10.500   0.750   0.000  0.00  0.00    +0.027 C 
ATOM     12  C   UNL     1      10.500   3.348   0.000  0.00  0.00    +0.027 C 
ENDBRANCH   8  10
BRANCH  15  17
ATOM     17  C   UNL     1       9.750   7.245   0.000  0.00  0.00    +0.101 C 
ATOM     18  C   UNL     1      10.500   8.544   0.000  0.00  0.00    +0.024 C 
ENDBRANCH  15  17
TORSDOF 3