REMARK  Name = 335979
REMARK  14 active torsions:
REMARK  status: ('A' for Active; 'I' for Inactive)
REMARK    1  A    between atoms: O_1  and  C_2
REMARK    2  A    between atoms: O_1  and  C_22
REMARK    3  A    between atoms: C_5  and  CA_27
REMARK    4  A    between atoms: CG_9  and  CB_31
REMARK    5  A    between atoms: C_16  and  C_22
REMARK    6  A    between atoms: CD1_23  and  CG_26
REMARK    7  A    between atoms: N_24  and  CA_27
REMARK    8  A    between atoms: CB_25  and  CG_26
REMARK    9  A    between atoms: CB_25  and  CA_27
REMARK   10  A    between atoms: CG_26  and  CD2_28
REMARK   11  A    between atoms: N_29  and  CA_30
REMARK   12  A    between atoms: CA_30  and  CB_31
REMARK   13  A    between atoms: CA_30  and  C_32
REMARK   14  A    between atoms: C_32  and  OXT_34
REMARK                            x       y       z     vdW  Elec       q    Type
REMARK                         _______ _______ _______ _____ _____    ______ ____
ROOT
ATOM     17  C   LEU A   1       5.486   3.634   0.000  0.00  0.00    +0.234 C 
ATOM     18  N   TRP A   2       6.236   2.335   0.000  0.00  0.00    -0.301 N 
ATOM     19  H   TRP A   2       5.744   1.483   0.000  0.00  0.00    +0.150 HD
ATOM     36  O   LEU A   1       6.236   4.933   0.000  0.00  0.00    -0.274 OA
ENDROOT
BRANCH  17  12
ATOM     12  CA  LEU A   1       3.986   3.634   0.000  0.00  0.00    +0.162 C 
BRANCH  12  10
ATOM      9  C   UNK A   0       3.986   6.232   0.000  0.00  0.00    +0.401 C 
ATOM     10  N   LEU A   1       3.236   4.933   0.000  0.00  0.00    -0.270 N 
ATOM     11  H   LEU A   1       2.251   4.933   0.000  0.00  0.00    +0.153 HD
ATOM     37  O   UNK A   0       3.236   7.532   0.000  0.00  0.00    -0.226 OA
BRANCH   9   1
ATOM      1  O   UNK A   0       5.486   6.232   0.000  0.00  0.00    -0.446 OA
BRANCH   1   2
ATOM      2  C   UNK A   0       6.236   7.532   0.000  0.00  0.00    +0.269 C 
BRANCH   2   3
ATOM      3  C   UNK A   0       5.486   8.831   0.000  0.00  0.00    -0.010 A 
ATOM      4  C   UNK A   0       6.986   8.831   0.000  0.00  0.00    +0.007 A 
ATOM      5  C   UNK A   0       7.736   7.532   0.000  0.00  0.00    +0.000 A 
ATOM      6  C   UNK A   0       6.986   6.232   0.000  0.00  0.00    +0.000 A 
ATOM      7  C   UNK A   0       5.486   6.232   0.000  0.00  0.00    +0.000 A 
ATOM      8  C   UNK A   0       4.736   7.532   0.000  0.00  0.00    +0.007 A 
ENDBRANCH   2   3
ENDBRANCH   1   2
ENDBRANCH   9   1
ENDBRANCH  12  10
BRANCH  12  13
ATOM     13  CB  LEU A   1       3.236   2.335   0.000  0.00  0.00    +0.035 C 
BRANCH  13  14
ATOM     14  CG  LEU A   1       3.986   1.036   0.000  0.00  0.00    -0.015 C 
ATOM     15  CD2 LEU A   1       5.486   1.036   0.000  0.00  0.00    +0.007 C 
ATOM     16  CD1 LEU A   1       3.236  -0.263   0.000  0.00  0.00    +0.007 C 
ENDBRANCH  13  14
ENDBRANCH  12  13
ENDBRANCH  17  12
BRANCH  18  20
ATOM     20  CA  TRP A   2       7.736   2.335   0.000  0.00  0.00    +0.186 C 
BRANCH  20  21
ATOM     21  C   TRP A   2       8.486   3.634   0.000  0.00  0.00    +0.326 C 
ATOM     24  O   TRP A   2       7.736   4.933   0.000  0.00  0.00    -0.249 OA
BRANCH  21  22
ATOM     22  OXT TRP A   2       9.986   3.634   0.000  0.00  0.00    -0.479 OA
ATOM     23  HXT TRP A   2      10.454   2.823   0.000  0.00  0.00    +0.295 HD
ENDBRANCH  21  22
ENDBRANCH  20  21
BRANCH  20  25
ATOM     25  CB  TRP A   2       8.486   1.036   0.000  0.00  0.00    +0.071 C 
BRANCH  25  26
ATOM     26  CG  TRP A   2       9.963   1.297   0.000  0.00  0.00    -0.020 A 
ATOM     27  CD2 TRP A   2      11.042   0.255   0.000  0.00  0.00    +0.003 A 
ATOM     28  CE2 TRP A   2      12.366   0.959   0.000  0.00  0.00    +0.047 A 
ATOM     29  CZ2 TRP A   2      13.639   0.164   0.000  0.00  0.00    +0.026 A 
ATOM     30  CH2 TRP A   2      13.586  -1.335   0.000  0.00  0.00    +0.002 A 
ATOM     31  CZ3 TRP A   2      12.262  -2.039   0.000  0.00  0.00    +0.001 A 
ATOM     32  NE1 TRP A   2      12.106   2.436   0.000  0.00  0.00    -0.360 N 
ATOM     33  HE1 TRP A   2      13.148   3.515   0.000  0.00  0.00    +0.165 HD
ATOM     34  CE3 TRP A   2      10.990  -1.244   0.000  0.00  0.00    +0.010 A 
ATOM     35  CD1 TRP A   2      10.621   2.645   0.000  0.00  0.00    +0.087 A 
ENDBRANCH  25  26
ENDBRANCH  20  25
ENDBRANCH  18  20
TORSDOF 12