REMARK  Name = 283845
REMARK  1 active torsions:
REMARK  status: ('A' for Active; 'I' for Inactive)
REMARK    1  A    between atoms: C_15  and  C_16
REMARK                            x       y       z     vdW  Elec       q    Type
REMARK                         _______ _______ _______ _____ _____    ______ ____
ROOT
ATOM      1  C   UNL     1       0.750   6.750   0.000  0.00  0.00    +0.001 A 
ATOM      2  C   UNL     1       0.750   5.250   0.000  0.00  0.00    +0.008 A 
ATOM      3  C   UNL     1       2.049   4.500   0.000  0.00  0.00    -0.014 A 
ATOM      4  C   UNL     1       2.049   3.000   0.000  0.00  0.00    +0.009 A 
ATOM      5  C   UNL     1       3.348   2.250   0.000  0.00  0.00    +0.016 A 
ATOM      6  C   UNL     1       4.647   3.000   0.000  0.00  0.00    +0.065 A 
ATOM      7  C   UNL     1       5.946   2.250   0.000  0.00  0.00    +0.193 A 
ATOM      8  O   UNL     1       5.946   0.750   0.000  0.00  0.00    -0.287 OA
ATOM      9  C   UNL     1       7.245   3.000   0.000  0.00  0.00    +0.098 A 
ATOM     10  C   UNL     1       7.245   4.500   0.000  0.00  0.00    +0.141 A 
ATOM     17  O   UNL     1       5.946   5.250   0.000  0.00  0.00    -0.454 OA
ATOM     18  C   UNL     1       4.647   4.500   0.000  0.00  0.00    +0.147 A 
ATOM     19  C   UNL     1       3.348   5.250   0.000  0.00  0.00    +0.025 A 
ATOM     20  C   UNL     1       3.348   6.750   0.000  0.00  0.00    +0.012 A 
ATOM     21  C   UNL     1       2.049   7.500   0.000  0.00  0.00    +0.001 A 
ENDROOT
BRANCH  10  11
ATOM     11  C   UNL     1       8.544   5.250   0.000  0.00  0.00    +0.035 A 
ATOM     12  C   UNL     1       9.843   4.500   0.000  0.00  0.00    +0.122 A 
ATOM     13  N   UNL     1      11.142   5.250   0.000  0.00  0.00    -0.263 NA
ATOM     14  C   UNL     1      11.142   6.750   0.000  0.00  0.00    +0.111 A 
ATOM     15  C   UNL     1       9.843   7.500   0.000  0.00  0.00    +0.020 A 
ATOM     16  C   UNL     1       8.544   6.750   0.000  0.00  0.00    +0.014 A 
ENDBRANCH  10  11
TORSDOF 1