REMARK  Name = 40306
REMARK  4 active torsions:
REMARK  status: ('A' for Active; 'I' for Inactive)
REMARK    1  A    between atoms: C_3  and  C_18
REMARK    2  A    between atoms: C_9  and  C_19
REMARK    3  A    between atoms: C_11  and  C_15
REMARK    4  A    between atoms: C_19  and  O_21
REMARK                            x       y       z     vdW  Elec       q    Type
REMARK                         _______ _______ _______ _____ _____    ______ ____
ROOT
ATOM      1 CL   UNL     1      -8.718  -5.899   0.000  0.00  0.00    -0.083 Cl
ATOM      2  C   UNL     1      -7.419  -6.649   0.000  0.00  0.00    +0.046 A 
ATOM      3  C   UNL     1      -7.419  -8.149   0.000  0.00  0.00    +0.021 A 
ATOM      4  C   UNL     1      -6.120  -8.899   0.000  0.00  0.00    +0.012 A 
ATOM      5  C   UNL     1      -4.821  -8.149   0.000  0.00  0.00    +0.015 A 
ATOM      6  C   UNL     1      -3.522  -8.899   0.000  0.00  0.00    +0.070 A 
ATOM     11  C   UNL     1      -2.223  -8.149   0.000  0.00  0.00    +0.044 A 
ATOM     12  C   UNL     1      -2.223  -6.649   0.000  0.00  0.00    +0.072 A 
ATOM     19  N   UNL     1      -3.522  -5.899   0.000  0.00  0.00    -0.246 NA
ATOM     20  C   UNL     1      -4.821  -6.649   0.000  0.00  0.00    +0.077 A 
ATOM     21  C   UNL     1      -6.120  -5.899   0.000  0.00  0.00    -0.006 A 
ATOM     22  C   UNL     1      -6.120  -4.399   0.000  0.00  0.00    +0.047 C 
ENDROOT
BRANCH  12  13
ATOM     13  C   UNL     1      -0.924  -5.899   0.000  0.00  0.00    +0.000 A 
ATOM     14  C   UNL     1       0.375  -6.649   0.000  0.00  0.00    +0.010 A 
ATOM     15  C   UNL     1       1.674  -5.899   0.000  0.00  0.00    +0.001 A 
ATOM     16  C   UNL     1       1.674  -4.399   0.000  0.00  0.00    +0.000 A 
ATOM     17  C   UNL     1       0.375  -3.650   0.000  0.00  0.00    +0.001 A 
ATOM     18  C   UNL     1      -0.924  -4.399   0.000  0.00  0.00    +0.010 A 
ENDBRANCH  12  13
BRANCH   6   7
ATOM      7  C   UNL     1      -3.522 -10.400   0.000  0.00  0.00    +0.338 C 
ATOM     10  O   UNL     1      -4.821 -11.150   0.000  0.00  0.00    -0.245 OA
BRANCH   7   8
ATOM      8  O   UNL     1      -2.223 -11.150   0.000  0.00  0.00    -0.477 OA
ATOM      9  H   UNL     1      -2.223 -12.086   0.000  0.00  0.00    +0.295 HD
ENDBRANCH   7   8
ENDBRANCH   6   7
TORSDOF 3