REMARK  Name = 269905
REMARK  4 active torsions:
REMARK  status: ('A' for Active; 'I' for Inactive)
REMARK    1  A    between atoms: C_2  and  C_6
REMARK    2  A    between atoms: N_4  and  C_13
REMARK    3  A    between atoms: C_5  and  C_12
REMARK    4  A    between atoms: C_12  and  O_14
REMARK                            x       y       z     vdW  Elec       q    Type
REMARK                         _______ _______ _______ _____ _____    ______ ____
ROOT
ATOM      1  N   UNL     1      -5.886   1.652   0.000  0.00  0.00    -0.236 NA
ATOM      2  C   UNL     1      -5.004   0.439   0.000  0.00  0.00    +0.136 A 
ATOM      3  C   UNL     1      -3.577   0.902   0.000  0.00  0.00    +0.064 A 
ATOM      7  N   UNL     1      -3.577   2.402   0.000  0.00  0.00    -0.329 N 
ATOM      8  C   UNL     1      -2.364   3.284   0.000  0.00  0.00    +0.150 C 
ATOM      9  C   UNL     1      -5.004   2.866   0.000  0.00  0.00    +0.141 A 
ENDROOT
BRANCH   9  10
ATOM     10  C   UNL     1      -5.468   4.292   0.000  0.00  0.00    +0.017 A 
ATOM     11  C   UNL     1      -4.464   5.407   0.000  0.00  0.00    +0.011 A 
ATOM     12  C   UNL     1      -4.927   6.834   0.000  0.00  0.00    +0.001 A 
ATOM     13  C   UNL     1      -6.394   7.146   0.000  0.00  0.00    +0.000 A 
ATOM     14  C   UNL     1      -7.398   6.031   0.000  0.00  0.00    +0.001 A 
ATOM     15  C   UNL     1      -6.935   4.604   0.000  0.00  0.00    +0.011 A 
ENDBRANCH   9  10
BRANCH   3   4
ATOM      4  C   UNL     1      -2.364   0.021   0.000  0.00  0.00    +0.210 C 
BRANCH   4   5
ATOM      5  O   UNL     1      -0.994   0.631   0.000  0.00  0.00    -0.389 OA
ATOM      6  H   UNL     1      -0.209   0.061   0.000  0.00  0.00    +0.210 HD
ENDBRANCH   4   5
ENDBRANCH   3   4
TORSDOF 3