REMARK  Name = 372767
REMARK  3 active torsions:
REMARK  status: ('A' for Active; 'I' for Inactive)
REMARK    1  A    between atoms: C_7  and  C_8
REMARK    2  A    between atoms: C_11  and  C_13
REMARK    3  A    between atoms: C_18  and  N_19
REMARK                            x       y       z     vdW  Elec       q    Type
REMARK                         _______ _______ _______ _____ _____    ______ ____
ROOT
ATOM      6  C   UNL     1       7.024   0.275   0.000  0.00  0.00    +0.156 A 
ATOM      7  O   UNL     1       7.906  -0.939   0.000  0.00  0.00    -0.435 OA
ATOM      8  C   UNL     1       9.333  -0.475   0.000  0.00  0.00    +0.228 A 
ATOM     18  N   UNL     1       9.333   1.025   0.000  0.00  0.00    -0.217 NA
ATOM     19  C   UNL     1       7.906   1.488   0.000  0.00  0.00    +0.161 A 
ENDROOT
BRANCH   6   5
ATOM      1 BR   UNL     1       1.025   0.275   0.000  0.00  0.00    -0.050 Br
ATOM      2  C   UNL     1       2.525   0.275   0.000  0.00  0.00    +0.018 A 
ATOM      3  C   UNL     1       3.275  -1.025   0.000  0.00  0.00    +0.016 A 
ATOM      4  C   UNL     1       4.774  -1.025   0.000  0.00  0.00    +0.013 A 
ATOM      5  C   UNL     1       5.524   0.275   0.000  0.00  0.00    +0.019 A 
ATOM     20  C   UNL     1       4.774   1.574   0.000  0.00  0.00    +0.013 A 
ATOM     21  C   UNL     1       3.275   1.574   0.000  0.00  0.00    +0.016 A 
ENDBRANCH   6   5
BRANCH   8   9
ATOM      9  C   UNL     1      10.546  -1.357   0.000  0.00  0.00    +0.037 A 
ATOM     10  C   UNL     1      10.390  -2.849   0.000  0.00  0.00    +0.020 A 
ATOM     11  C   UNL     1      11.603  -3.731   0.000  0.00  0.00    +0.085 A 
ATOM     12  C   UNL     1      12.973  -3.120   0.000  0.00  0.00    +0.273 A 
ATOM     16  C   UNL     1      13.130  -1.629   0.000  0.00  0.00    +0.085 A 
ATOM     17  C   UNL     1      11.917  -0.747   0.000  0.00  0.00    +0.020 A 
BRANCH  12  13
ATOM     13  N   UNL     1      14.187  -4.002   0.000  0.00  0.00    +0.080 N 
ATOM     14  O   UNL     1      14.030  -5.494   0.000  0.00  0.00    +0.041 OA
ATOM     15  O   UNL     1      15.557  -3.392   0.000  0.00  0.00    -0.576 OA
ENDBRANCH  12  13
ENDBRANCH   8   9
TORSDOF 3