REMARK  Name = 39336
REMARK  4 active torsions:
REMARK  status: ('A' for Active; 'I' for Inactive)
REMARK    1  A    between atoms: N_6  and  C_13
REMARK    2  A    between atoms: C_13  and  C_14
REMARK    3  A    between atoms: C_14  and  C_15
REMARK    4  A    between atoms: C_15  and  C_16
REMARK                            x       y       z     vdW  Elec       q    Type
REMARK                         _______ _______ _______ _____ _____    ______ ____
ROOT
ATOM      1  N   UNL     1     -10.594   2.250   0.000  0.00  0.00    -0.207 NA
ATOM      2  C   UNL     1      -9.295   3.000   0.000  0.00  0.00    +0.140 A 
ATOM      3  C   UNL     1      -7.996   2.250   0.000  0.00  0.00    +0.139 A 
ATOM      4  C   UNL     1      -7.996   0.750   0.000  0.00  0.00    +0.143 A 
ATOM      5  N   UNL     1      -6.569   0.287   0.000  0.00  0.00    -0.316 N 
ATOM     10  C   UNL     1      -5.688   1.500   0.000  0.00  0.00    +0.201 A 
ATOM     11  N   UNL     1      -9.295   0.000   0.000  0.00  0.00    -0.312 N 
ATOM     12  H   UNL     1      -9.295  -1.500   0.000  0.00  0.00    +0.170 HD
ATOM     13  N   UNL     1      -6.569   2.714   0.000  0.00  0.00    -0.231 NA
ATOM     14  S   UNL     1      -9.295   4.500   0.000  0.00  0.00    -0.028 S 
ATOM     15  C   UNL     1     -10.594   0.750   0.000  0.00  0.00    +0.193 A 
ATOM     16  N   UNL     1     -11.893   0.000   0.000  0.00  0.00    -0.329 N 
ATOM     17  H   UNL     1     -11.893  -0.984   0.000  0.00  0.00    +0.145 HD
ATOM     18  H   UNL     1     -12.746   0.493   0.000  0.00  0.00    +0.145 HD
ENDROOT
BRANCH   5   6
ATOM      6  C   UNL     1      -6.106  -1.140   0.000  0.00  0.00    +0.125 C 
BRANCH   6   7
ATOM      7  C   UNL     1      -4.638  -1.452   0.000  0.00  0.00    +0.021 C 
BRANCH   7   8
ATOM      8  C   UNL     1      -4.175  -2.878   0.000  0.00  0.00    -0.002 C 
ATOM      9  C   UNL     1      -2.708  -3.190   0.000  0.00  0.00    +0.004 C 
ENDBRANCH   7   8
ENDBRANCH   6   7
ENDBRANCH   5   6
TORSDOF 3