REMARK  Name = 241998
REMARK  6 active torsions:
REMARK  status: ('A' for Active; 'I' for Inactive)
REMARK    1  A    between atoms: N_12  and  C_16
REMARK    2  A    between atoms: C_13  and  C_20
REMARK    3  A    between atoms: C_15  and  C_16
REMARK    4  A    between atoms: C_15  and  C_20
REMARK    5  A    between atoms: C_16  and  C_17
REMARK    6  A    between atoms: C_17  and  O_19
REMARK                            x       y       z     vdW  Elec       q    Type
REMARK                         _______ _______ _______ _____ _____    ______ ____
ROOT
ATOM      1  C   UNL     1      -2.795   4.691   0.000  0.00  0.00    +0.004 C 
ATOM      2  C   UNL     1      -2.045   3.392   0.000  0.00  0.00    +0.004 C 
ATOM      3  C   UNL     1      -0.545   3.392   0.000  0.00  0.00    +0.002 C 
ATOM      4  C   UNL     1       0.205   4.691   0.000  0.00  0.00    +0.091 C 
ATOM      5  C   UNL     1       1.672   5.003   0.000  0.00  0.00    +0.227 C 
ATOM      6  O   UNL     1       2.787   4.000   0.000  0.00  0.00    -0.275 OA
ATOM      7  N   UNL     1       1.829   6.495   0.000  0.00  0.00    -0.228 N 
ATOM     20  C   UNL     1       0.458   7.105   0.000  0.00  0.00    +0.227 C 
ATOM     21  O   UNL     1       0.146   8.572   0.000  0.00  0.00    -0.275 OA
ATOM     22  C   UNL     1      -0.545   5.990   0.000  0.00  0.00    +0.091 C 
ATOM     23  C   UNL     1      -2.045   4.258   0.000  0.00  0.00    +0.008 C 
ATOM     24  C   UNL     1      -2.045   5.990   0.000  0.00  0.00    +0.002 C 
ENDROOT
BRANCH   7   8
ATOM      8  C   UNL     1       3.128   7.245   0.000  0.00  0.00    +0.193 C 
BRANCH   8   9
ATOM      9  C   UNL     1       4.427   6.495   0.000  0.00  0.00    +0.326 C 
ATOM     12  O   UNL     1       4.427   4.995   0.000  0.00  0.00    -0.249 OA
BRANCH   9  10
ATOM     10  O   UNL     1       5.726   7.245   0.000  0.00  0.00    -0.479 OA
ATOM     11  H   UNL     1       6.537   6.777   0.000  0.00  0.00    +0.295 HD
ENDBRANCH   9  10
ENDBRANCH   8   9
BRANCH   8  13
ATOM     13  C   UNL     1       3.128   8.745   0.000  0.00  0.00    +0.043 C 
BRANCH  13  14
ATOM     14  C   UNL     1       4.427   9.495   0.000  0.00  0.00    +0.098 C 
BRANCH  14  15
ATOM     15  C   UNL     1       4.427  10.995   0.000  0.00  0.00    +0.211 C 
ATOM     16  N   UNL     1       5.726  11.745   0.000  0.00  0.00    -0.329 N 
ATOM     17  H   UNL     1       5.726  12.730   0.000  0.00  0.00    +0.145 HD
ATOM     18  H   UNL     1       6.578  11.253   0.000  0.00  0.00    +0.145 HD
ATOM     19  O   UNL     1       3.128  11.745   0.000  0.00  0.00    -0.276 OA
ENDBRANCH  14  15
ENDBRANCH  13  14
ENDBRANCH   8  13
ENDBRANCH   7   8
TORSDOF 6