REMARK  Name = 285669
REMARK  3 active torsions:
REMARK  status: ('A' for Active; 'I' for Inactive)
REMARK    1  A    between atoms: O_1  and  C_2
REMARK    2  A    between atoms: O_1  and  C_17
REMARK    3  A    between atoms: C_5  and  N_18
REMARK                            x       y       z     vdW  Elec       q    Type
REMARK                         _______ _______ _______ _____ _____    ______ ____
ROOT
ATOM      6  C   UNL     1       5.926   0.784   0.000  0.00  0.00    +0.065 A 
ATOM      7  C   UNL     1       7.352   0.321   0.000  0.00  0.00    +0.065 A 
ATOM      8  C   UNL     1       7.352  -1.179   0.000  0.00  0.00    +0.013 A 
ATOM      9  C   UNL     1       8.413  -2.240   0.000  0.00  0.00    +0.044 C 
ATOM     10  C   UNL     1       9.913  -2.240   0.000  0.00  0.00    +0.006 C 
ATOM     11  C   UNL     1      10.974  -1.179   0.000  0.00  0.00    +0.010 C 
ATOM     12  C   UNL     1      10.974   0.321   0.000  0.00  0.00    +0.096 C 
ATOM     13  C   UNL     1       9.913   1.381   0.000  0.00  0.00    +0.217 C 
ATOM     14  O   UNL     1      10.487   2.767   0.000  0.00  0.00    -0.275 OA
ATOM     15  S   UNL     1       5.926  -1.643   0.000  0.00  0.00    -0.098 S 
ATOM     16  N   UNL     1       8.413   1.381   0.000  0.00  0.00    -0.283 N 
ATOM     17  H   UNL     1       7.839   2.767   0.000  0.00  0.00    +0.155 HD
ATOM     18  C   UNL     1       5.044  -0.429   0.000  0.00  0.00    +0.070 A 
ENDROOT
BRANCH   6   4
ATOM      3  C   UNL     1       3.995   2.523   0.000  0.00  0.00    +0.404 C 
ATOM      4  N   UNL     1       5.462   2.211   0.000  0.00  0.00    -0.249 N 
ATOM      5  H   UNL     1       6.121   2.942   0.000  0.00  0.00    +0.158 HD
ATOM     19  O   UNL     1       3.532   3.949   0.000  0.00  0.00    -0.226 OA
BRANCH   3   1
ATOM      1  O   UNL     1       2.991   1.408   0.000  0.00  0.00    -0.453 OA
ATOM      2  C   UNL     1       1.524   1.720   0.000  0.00  0.00    +0.282 C 
ENDBRANCH   3   1
ENDBRANCH   6   4
TORSDOF 2