REMARK  Name = 306752
REMARK  2 active torsions:
REMARK  status: ('A' for Active; 'I' for Inactive)
REMARK    1  A    between atoms: C_5  and  N_16
REMARK    2  A    between atoms: N_11  and  N_15
REMARK                            x       y       z     vdW  Elec       q    Type
REMARK                         _______ _______ _______ _____ _____    ______ ____
ROOT
ATOM      6  N   UNL     1      -7.024  -0.275   0.000  0.00  0.00    -0.268 N 
ATOM      7  H   UNL     1      -7.517  -1.127   0.000  0.00  0.00    +0.156 HD
ATOM      8  C   UNL     1      -7.774   1.025   0.000  0.00  0.00    +0.322 C 
ATOM      9  N   UNL     1      -9.274   1.025   0.000  0.00  0.00    -0.204 N 
ATOM     10  H   UNL     1      -9.767   0.172   0.000  0.00  0.00    +0.177 HD
ATOM     16  O   UNL     1      -7.024   2.324   0.000  0.00  0.00    -0.251 OA
ENDROOT
BRANCH   6   5
ATOM      1  C   UNL     1      -3.275   1.025   0.000  0.00  0.00    +0.003 A 
ATOM      2  C   UNL     1      -2.525  -0.275   0.000  0.00  0.00    +0.020 A 
ATOM      3  C   UNL     1      -3.275  -1.574   0.000  0.00  0.00    +0.043 A 
ATOM      4  C   UNL     1      -4.774  -1.574   0.000  0.00  0.00    +0.043 A 
ATOM      5  C   UNL     1      -5.524  -0.275   0.000  0.00  0.00    +0.036 A 
ATOM     17 CL   UNL     1      -2.525  -2.873   0.000  0.00  0.00    -0.083 Cl
ATOM     18  C   UNL     1      -4.774   1.025   0.000  0.00  0.00    +0.023 A 
ENDBRANCH   6   5
BRANCH   9  11
ATOM     11  N   UNL     1     -10.025   2.324   0.000  0.00  0.00    -0.233 N 
ATOM     12  C   UNL     1     -11.516   2.480   0.000  0.00  0.00    +0.244 A 
ATOM     13  N   UNL     1     -11.828   3.948   0.000  0.00  0.00    -0.137 NA
ATOM     14  N   UNL     1     -10.529   4.698   0.000  0.00  0.00    -0.137 NA
ATOM     15  C   UNL     1      -9.414   3.694   0.000  0.00  0.00    +0.244 A 
ENDBRANCH   9  11
TORSDOF 2