REMARK  Name = 309874
REMARK  5 active torsions:
REMARK  status: ('A' for Active; 'I' for Inactive)
REMARK    1  A    between atoms: C_7  and  C_11
REMARK    2  A    between atoms: N_8  and  C_18
REMARK    3  A    between atoms: C_11  and  C_12
REMARK    4  A    between atoms: C_13  and  N_31
REMARK    5  A    between atoms: C_19  and  C_21
REMARK                            x       y       z     vdW  Elec       q    Type
REMARK                         _______ _______ _______ _____ _____    ______ ____
ROOT
ATOM     10  C   UNL     1       3.275   6.221   0.000  0.00  0.00    -0.024 A 
ATOM     11  C   UNL     1       2.525   4.922   0.000  0.00  0.00    +0.005 A 
ATOM     12  C   UNL     1       3.275   3.623   0.000  0.00  0.00    +0.000 A 
ATOM     13  C   UNL     1       4.774   3.623   0.000  0.00  0.00    +0.002 A 
ATOM     14  C   UNL     1       5.524   4.922   0.000  0.00  0.00    +0.023 A 
ATOM     15  C   UNL     1       4.774   6.221   0.000  0.00  0.00    +0.037 A 
ENDROOT
BRANCH  15  16
ATOM     16  N   UNL     1       5.524   7.520   0.000  0.00  0.00    -0.281 N 
ATOM     17  H   UNL     1       5.032   8.372   0.000  0.00  0.00    +0.155 HD
ATOM     18  C   UNL     1       7.024   7.520   0.000  0.00  0.00    +0.256 C 
ATOM     29  O   UNL     1       7.774   6.221   0.000  0.00  0.00    -0.269 OA
BRANCH  18  19
ATOM     19  C   UNL     1       7.774   8.819   0.000  0.00  0.00    +0.094 A 
ATOM     20  S   UNL     1       7.164  10.189   0.000  0.00  0.00    -0.082 S 
ATOM     21  C   UNL     1       8.279  11.193   0.000  0.00  0.00    +0.021 A 
ATOM     22  C   UNL     1       9.578  10.443   0.000  0.00  0.00    +0.008 A 
ATOM     23  C   UNL     1      10.877  11.193   0.000  0.00  0.00    +0.010 A 
ATOM     24  C   UNL     1      10.877  12.693   0.000  0.00  0.00    +0.001 A 
ATOM     25  C   UNL     1       9.578  13.443   0.000  0.00  0.00    +0.001 A 
ATOM     26  C   UNL     1       8.279  12.693   0.000  0.00  0.00    +0.016 A 
ATOM     27  C   UNL     1       9.266   8.976   0.000  0.00  0.00    +0.068 A 
ATOM     28 CL   UNL     1      10.270   7.861   0.000  0.00  0.00    -0.082 Cl
ENDBRANCH  18  19
ENDBRANCH  15  16
BRANCH  10   9
ATOM      9  C   UNL     1       2.525   7.520   0.000  0.00  0.00    +0.060 C 
BRANCH   9   8
ATOM      1  C   UNL     1      -1.226   3.623   0.000  0.00  0.00    +0.000 A 
ATOM      2  C   UNL     1      -1.976   4.922   0.000  0.00  0.00    +0.004 A 
ATOM      3  C   UNL     1      -1.226   6.221   0.000  0.00  0.00    -0.041 A 
ATOM      4  C   UNL     1      -1.976   7.520   0.000  0.00  0.00    +0.051 C 
ATOM      5  C   UNL     1      -1.226   8.819   0.000  0.00  0.00    +0.089 C 
ATOM      6  N   UNL     1       0.275   8.819   0.000  0.00  0.00    -0.298 NA
ATOM      7  C   UNL     1       1.025  10.118   0.000  0.00  0.00    +0.105 C 
ATOM      8  C   UNL     1       1.025   7.520   0.000  0.00  0.00    +0.091 C 
ATOM     30  C   UNL     1       0.275   6.221   0.000  0.00  0.00    -0.027 A 
ATOM     31  C   UNL     1       1.025   4.922   0.000  0.00  0.00    +0.005 A 
ATOM     32  C   UNL     1       0.275   3.623   0.000  0.00  0.00    +0.000 A 
ENDBRANCH   9   8
ENDBRANCH  10   9
TORSDOF 4