REMARK  Name = 317003
REMARK  8 active torsions:
REMARK  status: ('A' for Active; 'I' for Inactive)
REMARK    1  A    between atoms: C_1  and  O_17
REMARK    2  A    between atoms: C_12  and  N_18
REMARK    3  A    between atoms: C_13  and  C_19
REMARK    4  A    between atoms: N_16  and  C_21
REMARK    5  A    between atoms: N_16  and  C_22
REMARK    6  A    between atoms: N_16  and  C_23
REMARK    7  A    between atoms: N_18  and  C_20
REMARK    8  A    between atoms: C_20  and  C_21
REMARK                            x       y       z     vdW  Elec       q    Type
REMARK                         _______ _______ _______ _____ _____    ______ ____
ROOT
ATOM      1  I   UNL     1      -0.824 -12.074   0.000  0.00  0.00    -0.107 I 
ATOM      2  H   UNL     1       0.876 -12.074   0.000  0.00  0.00    +0.107 HD
ENDROOT
TORSDOF 0