REMARK  Name = 367306
REMARK  2 active torsions:
REMARK  status: ('A' for Active; 'I' for Inactive)
REMARK    1  A    between atoms: C_9  and  N_23
REMARK    2  A    between atoms: C_14  and  C_16
REMARK                            x       y       z     vdW  Elec       q    Type
REMARK                         _______ _______ _______ _____ _____    ______ ____
ROOT
ATOM      6  N   UNL     1      -1.077   1.459   0.000  0.00  0.00    -0.267 N 
ATOM      7  H   UNL     1      -0.905   2.429   0.000  0.00  0.00    +0.156 HD
ATOM      8  C   UNL     1      -0.017   0.398   0.000  0.00  0.00    +0.310 C 
ATOM      9  N   UNL     1       1.432   0.785   0.000  0.00  0.00    -0.236 N 
ATOM     10  H   UNL     1       1.770   1.710   0.000  0.00  0.00    +0.159 HD
ATOM     11  C   UNL     1       2.292  -0.444   0.000  0.00  0.00    +0.257 C 
ATOM     20  O   UNL     1       1.657  -1.803   0.000  0.00  0.00    -0.270 OA
ATOM     21  O   UNL     1      -0.406  -1.051   0.000  0.00  0.00    -0.252 OA
ENDROOT
BRANCH   6   5
ATOM      1  F   UNL     1      -6.516  -1.073   0.000  0.00  0.00    -0.202 F 
ATOM      2  C   UNL     1      -5.156  -0.440   0.000  0.00  0.00    +0.163 A 
ATOM      3  C   UNL     1      -3.928  -1.301   0.000  0.00  0.00    +0.079 A 
ATOM      4  C   UNL     1      -2.568  -0.668   0.000  0.00  0.00    +0.049 A 
ATOM      5  C   UNL     1      -2.437   0.826   0.000  0.00  0.00    +0.073 A 
ATOM     22  C   UNL     1      -3.665   1.687   0.000  0.00  0.00    +0.166 A 
ATOM     23  F   UNL     1      -3.533   3.182   0.000  0.00  0.00    -0.202 F 
ATOM     24 CL   UNL     1      -4.060  -2.795   0.000  0.00  0.00    -0.080 Cl
ATOM     25  C   UNL     1      -5.025   1.054   0.000  0.00  0.00    +0.114 A 
ATOM     26 CL   UNL     1      -6.253   1.915   0.000  0.00  0.00    -0.077 Cl
ENDBRANCH   6   5
BRANCH  11  12
ATOM     12  C   UNL     1       3.786  -0.314   0.000  0.00  0.00    +0.107 A 
ATOM     13  C   UNL     1       4.646  -1.543   0.000  0.00  0.00    +0.138 A 
ATOM     14  C   UNL     1       6.140  -1.413   0.000  0.00  0.00    +0.039 A 
ATOM     15  C   UNL     1       6.775  -0.054   0.000  0.00  0.00    +0.006 A 
ATOM     16  C   UNL     1       5.915   1.175   0.000  0.00  0.00    +0.039 A 
ATOM     17  F   UNL     1       4.011  -2.902   0.000  0.00  0.00    -0.205 F 
ATOM     18  C   UNL     1       4.421   1.045   0.000  0.00  0.00    +0.138 A 
ATOM     19  F   UNL     1       3.562   2.274   0.000  0.00  0.00    -0.205 F 
ENDBRANCH  11  12
TORSDOF 2