REMARK  Name = 282187
REMARK  3 active torsions:
REMARK  status: ('A' for Active; 'I' for Inactive)
REMARK    1  A    between atoms: O_2  and  C_5
REMARK    2  A    between atoms: O_2  and  C_16
REMARK    3  A    between atoms: C_9  and  N_18
REMARK                            x       y       z     vdW  Elec       q    Type
REMARK                         _______ _______ _______ _____ _____    ______ ____
ROOT
ATOM     10  C   UNL     1      -7.774   4.172   0.000  0.00  0.00    +0.410 C 
ATOM     11  N   UNL     1      -6.274   4.172   0.000  0.00  0.00    -0.251 N 
ATOM     12  H   UNL     1      -5.782   5.024   0.000  0.00  0.00    +0.158 HD
ATOM     20  O   UNL     1      -8.524   2.873   0.000  0.00  0.00    -0.226 OA
ENDROOT
BRANCH  11  13
ATOM     13  C   UNL     1      -5.524   2.873   0.000  0.00  0.00    +0.037 A 
ATOM     14  C   UNL     1      -6.274   1.574   0.000  0.00  0.00    +0.026 A 
ATOM     15  C   UNL     1      -5.524   0.275   0.000  0.00  0.00    +0.040 A 
ATOM     16  C   UNL     1      -4.024   0.275   0.000  0.00  0.00    +0.124 A 
ATOM     17  C   UNL     1      -3.275   1.574   0.000  0.00  0.00    +0.040 A 
ATOM     18  F   UNL     1      -3.275  -1.025   0.000  0.00  0.00    -0.205 F 
ATOM     19  C   UNL     1      -4.024   2.873   0.000  0.00  0.00    +0.026 A 
ENDBRANCH  11  13
BRANCH  10   9
ATOM      9  O   UNL     1      -8.524   5.471   0.000  0.00  0.00    -0.406 OA
BRANCH   9   8
ATOM      1  O   UNL     1      -5.524   5.471   0.000  0.00  0.00    -0.264 OA
ATOM      2  C   UNL     1      -6.274   6.770   0.000  0.00  0.00    +0.291 A 
ATOM      3  N   UNL     1      -5.524   8.069   0.000  0.00  0.00    -0.326 N 
ATOM      4  H   UNL     1      -4.540   8.069   0.000  0.00  0.00    +0.168 HD
ATOM      5  C   UNL     1      -6.274   9.368   0.000  0.00  0.00    +0.086 A 
ATOM      6  C   UNL     1      -7.774   9.368   0.000  0.00  0.00    +0.021 A 
ATOM      7  C   UNL     1      -8.524   8.069   0.000  0.00  0.00    +0.053 A 
ATOM      8  C   UNL     1      -7.774   6.770   0.000  0.00  0.00    +0.197 A 
ENDBRANCH   9   8
ENDBRANCH  10   9
TORSDOF 3