REMARK  Name = 373981
REMARK  4 active torsions:
REMARK  status: ('A' for Active; 'I' for Inactive)
REMARK    1  A    between atoms: C_11  and  C_14
REMARK    2  A    between atoms: C_12  and  N_17
REMARK    3  A    between atoms: C_14  and  C_15
REMARK    4  A    between atoms: C_15  and  O_16
REMARK                            x       y       z     vdW  Elec       q    Type
REMARK                         _______ _______ _______ _____ _____    ______ ____
ROOT
ATOM      1  C   UNL     1      -1.025   4.774   0.000  0.00  0.00    +0.001 A 
ATOM      2  C   UNL     1       0.275   5.524   0.000  0.00  0.00    +0.009 A 
ATOM      3  C   UNL     1       1.574   4.774   0.000  0.00  0.00    -0.007 A 
ATOM      4  C   UNL     1       2.873   5.524   0.000  0.00  0.00    +0.038 A 
ATOM      5  C   UNL     1       3.184   6.992   0.000  0.00  0.00    +0.083 A 
ATOM     10  C   UNL     1       4.676   7.149   0.000  0.00  0.00    +0.442 A 
ATOM     14  O   UNL     1       5.286   5.778   0.000  0.00  0.00    -0.400 OA
ATOM     15  C   UNL     1       4.172   4.774   0.000  0.00  0.00    +0.143 A 
ATOM     16  C   UNL     1       4.172   3.275   0.000  0.00  0.00    +0.048 A 
ATOM     17  C   UNL     1       2.873   2.525   0.000  0.00  0.00    +0.012 A 
ATOM     18  C   UNL     1       1.574   3.275   0.000  0.00  0.00    -0.017 A 
ATOM     19  C   UNL     1       0.275   2.525   0.000  0.00  0.00    +0.008 A 
ATOM     20  C   UNL     1      -1.025   3.275   0.000  0.00  0.00    +0.001 A 
ENDROOT
BRANCH  10  11
ATOM     11  N   UNL     1       5.426   8.448   0.000  0.00  0.00    +0.119 N 
ATOM     12  O   UNL     1       4.676   9.747   0.000  0.00  0.00    +0.045 OA
ATOM     13  O   UNL     1       6.926   8.448   0.000  0.00  0.00    -0.573 OA
ENDBRANCH  10  11
BRANCH   5   6
ATOM      6  C   UNL     1       2.181   8.107   0.000  0.00  0.00    +0.074 C 
BRANCH   6   7
ATOM      7  C   UNL     1       0.714   7.795   0.000  0.00  0.00    +0.161 C 
BRANCH   7   8
ATOM      8  O   UNL     1      -0.290   8.909   0.000  0.00  0.00    -0.395 OA
ATOM      9  H   UNL     1       0.010   9.832   0.000  0.00  0.00    +0.209 HD
ENDBRANCH   7   8
ENDBRANCH   6   7
ENDBRANCH   5   6
TORSDOF 4