REMARK  Name = 294623
REMARK  3 active torsions:
REMARK  status: ('A' for Active; 'I' for Inactive)
REMARK    1  A    between atoms: C_1  and  C_9
REMARK    2  A    between atoms: C_5  and  C_17
REMARK    3  A    between atoms: C_8  and  C_18
REMARK                            x       y       z     vdW  Elec       q    Type
REMARK                         _______ _______ _______ _____ _____    ______ ____
ROOT
ATOM      1  C   UNL     1      -3.190   7.380   0.000  0.00  0.00    +0.307 C 
ATOM      2  N   UNL     1      -3.752   5.989   0.000  0.00  0.00    -0.169 N 
ATOM      3  H   UNL     1      -4.711   5.767   0.000  0.00  0.00    +0.255 HD
ATOM      4  C   UNL     1      -2.637   4.985   0.000  0.00  0.00    +0.408 C 
ATOM      5  N   UNL     1      -2.949   3.518   0.000  0.00  0.00    -0.129 NA
ATOM      6  H   UNL     1      -3.885   3.214   0.000  0.00  0.00    +0.306 HD
ATOM      7  N   UNL     1      -1.210   5.449   0.000  0.00  0.00    -0.111 N 
ATOM      8  C   UNL     1       0.003   4.567   0.000  0.00  0.00    +0.106 A 
ATOM      9  C   UNL     1       0.003   3.067   0.000  0.00  0.00    +0.084 C 
ATOM     10  C   UNL     1       1.217   5.449   0.000  0.00  0.00    +0.065 A 
ATOM     11  C   UNL     1       0.753   6.875   0.000  0.00  0.00    +0.077 A 
ATOM     12  C   UNL     1       1.635   8.089   0.000  0.00  0.00    +0.069 C 
ATOM     13  N   UNL     1      -0.747   6.875   0.000  0.00  0.00    -0.109 NA
ATOM     20  O   UNL     1      -1.704   7.588   0.000  0.00  0.00    -0.252 OA
ENDROOT
BRANCH   1  14
ATOM     14  C   UNL     1      -4.113   8.562   0.000  0.00  0.00    +0.053 A 
ATOM     15  C   UNL     1      -5.599   8.353   0.000  0.00  0.00    +0.014 A 
ATOM     16  C   UNL     1      -6.522   9.535   0.000  0.00  0.00    +0.001 A 
ATOM     17  C   UNL     1      -5.960  10.926   0.000  0.00  0.00    +0.000 A 
ATOM     18  C   UNL     1      -4.475  11.134   0.000  0.00  0.00    +0.001 A 
ATOM     19  C   UNL     1      -3.551   9.953   0.000  0.00  0.00    +0.014 A 
ENDBRANCH   1  14
TORSDOF 1