REMARK  Name = 23123
REMARK  2 active torsions:
REMARK  status: ('A' for Active; 'I' for Inactive)
REMARK    1  A    between atoms: C_3  and  N_17
REMARK    2  A    between atoms: C_14  and  N_18
REMARK                            x       y       z     vdW  Elec       q    Type
REMARK                         _______ _______ _______ _____ _____    ______ ____
ROOT
ATOM      1  O   UNL     1       4.647   6.750   0.000  0.00  0.00    -0.287 OA
ATOM      2  C   UNL     1       4.647   5.250   0.000  0.00  0.00    +0.196 C 
ATOM      3  C   UNL     1       3.348   4.500   0.000  0.00  0.00    +0.033 A 
ATOM      4  C   UNL     1       2.049   5.250   0.000  0.00  0.00    +0.012 A 
ATOM      5  C   UNL     1       0.750   4.500   0.000  0.00  0.00    +0.001 A 
ATOM      6  C   UNL     1       0.750   3.000   0.000  0.00  0.00    +0.001 A 
ATOM      7  C   UNL     1       2.049   2.250   0.000  0.00  0.00    +0.012 A 
ATOM      8  C   UNL     1       3.348   3.000   0.000  0.00  0.00    +0.033 A 
ATOM      9  C   UNL     1       4.647   2.250   0.000  0.00  0.00    +0.196 C 
ATOM     10  C   UNL     1       5.946   3.000   0.000  0.00  0.00    +0.051 C 
ATOM     11  C   UNL     1       7.245   2.250   0.000  0.00  0.00    +0.013 C 
ATOM     15  C   UNL     1       8.544   3.000   0.000  0.00  0.00    +0.057 C 
ATOM     16  C   UNL     1       8.544   4.500   0.000  0.00  0.00    +0.057 C 
ATOM     17  C   UNL     1       7.245   5.250   0.000  0.00  0.00    +0.013 C 
ATOM     21  O   UNL     1       4.647   0.750   0.000  0.00  0.00    -0.287 OA
ATOM     22  C   UNL     1       5.946   4.500   0.000  0.00  0.00    +0.051 C 
ENDROOT
BRANCH  11  12
ATOM     12  N   UNL     1       7.245   0.750   0.000  0.00  0.00    -0.361 N 
ATOM     13  H   UNL     1       8.098   0.258   0.000  0.00  0.00    +0.142 HD
ATOM     14  H   UNL     1       6.393   0.258   0.000  0.00  0.00    +0.142 HD
ENDBRANCH  11  12
BRANCH  17  18
ATOM     18  N   UNL     1       7.245   6.750   0.000  0.00  0.00    -0.361 N 
ATOM     19  H   UNL     1       6.393   7.242   0.000  0.00  0.00    +0.142 HD
ATOM     20  H   UNL     1       8.098   7.242   0.000  0.00  0.00    +0.142 HD
ENDBRANCH  17  18
TORSDOF 2