REMARK  Name = 37219
REMARK  8 active torsions:
REMARK  status: ('A' for Active; 'I' for Inactive)
REMARK    1  A    between atoms: C_5  and  O_27
REMARK    2  A    between atoms: C_12  and  O_21
REMARK    3  A    between atoms: O_21  and  C_22
REMARK    4  A    between atoms: C_22  and  C_23
REMARK    5  A    between atoms: C_23  and  O_24
REMARK    6  A    between atoms: O_24  and  C_25
REMARK    7  A    between atoms: C_25  and  C_26
REMARK    8  A    between atoms: C_26  and  O_27
REMARK                            x       y       z     vdW  Elec       q    Type
REMARK                         _______ _______ _______ _____ _____    ______ ____
ROOT
ATOM      8  O   UNL     1      -8.069  -5.524   0.000  0.00  0.00    -0.373 OA
ENDROOT
BRANCH   8   7
ATOM      7  C   UNL     1      -6.770  -4.774   0.000  0.00  0.00    +0.201 C 
BRANCH   7   6
ATOM      6  C   UNL     1      -5.471  -5.524   0.000  0.00  0.00    +0.257 C 
BRANCH   6   5
ATOM      5  O   UNL     1      -4.172  -4.774   0.000  0.00  0.00    -0.490 OA
BRANCH   5   4
ATOM      1  C   UNL     1       1.025  -4.774   0.000  0.00  0.00    +0.008 A 
ATOM      2  C   UNL     1      -0.275  -5.524   0.000  0.00  0.00    -0.014 A 
ATOM      3  C   UNL     1      -1.574  -4.774   0.000  0.00  0.00    +0.054 A 
ATOM      4  C   UNL     1      -2.873  -5.524   0.000  0.00  0.00    +0.121 A 
ATOM     22  C   UNL     1      -2.873  -7.024   0.000  0.00  0.00    +0.046 A 
ATOM     23  C   UNL     1      -1.573  -7.774   0.000  0.00  0.00    +0.012 A 
ATOM     24  C   UNL     1      -0.275  -7.024   0.000  0.00  0.00    -0.018 A 
ATOM     25  C   UNL     1       1.025  -7.774   0.000  0.00  0.00    +0.008 A 
ATOM     26  C   UNL     1       2.324  -7.024   0.000  0.00  0.00    +0.001 A 
ATOM     27  C   UNL     1       2.324  -5.524   0.000  0.00  0.00    +0.001 A 
ENDBRANCH   5   4
ENDBRANCH   6   5
ENDBRANCH   7   6
ENDBRANCH   8   7
BRANCH   8   9
ATOM      9  C   UNL     1      -8.069  -7.024   0.000  0.00  0.00    +0.201 C 
BRANCH   9  10
ATOM     10  C   UNL     1      -9.368  -7.774   0.000  0.00  0.00    +0.257 C 
BRANCH  10  11
ATOM     11  O   UNL     1      -9.368  -9.274   0.000  0.00  0.00    -0.490 OA
BRANCH  11  12
ATOM     12  C   UNL     1     -10.667 -10.025   0.000  0.00  0.00    +0.121 A 
ATOM     13  C   UNL     1     -10.667 -11.525   0.000  0.00  0.00    +0.046 A 
ATOM     14  C   UNL     1     -11.966 -12.275   0.000  0.00  0.00    +0.012 A 
ATOM     15  C   UNL     1     -13.265 -11.525   0.000  0.00  0.00    -0.018 A 
ATOM     16  C   UNL     1     -14.564 -12.275   0.000  0.00  0.00    +0.008 A 
ATOM     17  C   UNL     1     -15.863 -11.525   0.000  0.00  0.00    +0.001 A 
ATOM     18  C   UNL     1     -15.863 -10.025   0.000  0.00  0.00    +0.001 A 
ATOM     19  C   UNL     1     -14.564  -9.275   0.000  0.00  0.00    +0.008 A 
ATOM     20  C   UNL     1     -13.265 -10.025   0.000  0.00  0.00    -0.014 A 
ATOM     21  C   UNL     1     -11.966  -9.274   0.000  0.00  0.00    +0.054 A 
ENDBRANCH  11  12
ENDBRANCH  10  11
ENDBRANCH   9  10
ENDBRANCH   8   9
TORSDOF 8