REMARK  Name = 41376
REMARK  4 active torsions:
REMARK  status: ('A' for Active; 'I' for Inactive)
REMARK    1  A    between atoms: C_4  and  AS_15
REMARK    2  A    between atoms: C_10  and  AS_15
REMARK    3  A    between atoms: C_12  and  O_14
REMARK    4  A    between atoms: AS_15  and  O_16
REMARK                            x       y       z     vdW  Elec       q    Type
REMARK                         _______ _______ _______ _____ _____    ______ ____
ROOT
ATOM      1  O   UNL     1      -4.172  -3.275   0.000  0.00  0.00    +0.000 OA
ATOM      2 AS   UNL     1      -3.422  -4.574   0.000  0.00  0.00    +0.000 As
ENDROOT
BRANCH   2   5
ATOM      5  C   UNL     1      -4.721  -5.324   0.000  0.00  0.00    +0.000 A 
ATOM      6  C   UNL     1      -4.721  -6.824   0.000  0.00  0.00    +0.000 A 
ATOM      7  C   UNL     1      -6.020  -7.574   0.000  0.00  0.00    +0.000 A 
ATOM      8  C   UNL     1      -7.319  -6.824   0.000  0.00  0.00    +0.000 A 
ATOM     11  C   UNL     1      -7.319  -5.324   0.000  0.00  0.00    +0.000 A 
ATOM     12  C   UNL     1      -6.020  -4.574   0.000  0.00  0.00    +0.000 A 
BRANCH   8   9
ATOM      9  O   UNL     1      -8.618  -7.574   0.000  0.00  0.00    +0.000 OA
ATOM     10  H   UNL     1      -9.429  -7.105   0.000  0.00  0.00    +0.000 HD
ENDBRANCH   8   9
ENDBRANCH   2   5
BRANCH   2  13
ATOM     13  C   UNL     1      -2.123  -3.824   0.000  0.00  0.00    +0.000 A 
ATOM     14  C   UNL     1      -0.824  -4.574   0.000  0.00  0.00    +0.000 A 
ATOM     15  C   UNL     1       0.475  -3.824   0.000  0.00  0.00    +0.000 A 
ATOM     16  C   UNL     1       0.475  -2.324   0.000  0.00  0.00    +0.000 A 
ATOM     17  C   UNL     1      -0.824  -1.574   0.000  0.00  0.00    +0.000 A 
ATOM     18  C   UNL     1      -2.123  -2.324   0.000  0.00  0.00    +0.000 A 
ENDBRANCH   2  13
BRANCH   2   3
ATOM      3  O   UNL     1      -2.672  -5.873   0.000  0.00  0.00    +0.000 OA
ATOM      4  H   UNL     1      -3.157  -6.713   0.000  0.00  0.00    +0.000 HD
ENDBRANCH   2   3
TORSDOF 4