REMARK  Name = 367474
REMARK  6 active torsions:
REMARK  status: ('A' for Active; 'I' for Inactive)
REMARK    1  A    between atoms: C_2  and  C_18
REMARK    2  A    between atoms: C_11  and  C_12
REMARK    3  A    between atoms: C_17  and  C_19
REMARK    4  A    between atoms: C_19  and  C_20
REMARK    5  A    between atoms: C_19  and  C_21
REMARK    6  A    between atoms: C_19  and  C_22
REMARK                            x       y       z     vdW  Elec       q    Type
REMARK                         _______ _______ _______ _____ _____    ______ ____
ROOT
ATOM      1  C   UNL     1       4.024   2.873   0.000  0.00  0.00    +0.093 A 
ATOM      2  C   UNL     1       3.275   1.574   0.000  0.00  0.00    +0.020 A 
ATOM      3  C   UNL     1       1.775   1.574   0.000  0.00  0.00    +0.063 C 
ATOM      4  N   UNL     1       4.024   0.275   0.000  0.00  0.00    -0.343 N 
ATOM      5  H   UNL     1       3.275  -1.025   0.000  0.00  0.00    +0.167 HD
ATOM      6  C   UNL     1       5.524   0.275   0.000  0.00  0.00    +0.138 A 
ATOM      7  C   UNL     1       6.528  -0.840   0.000  0.00  0.00    +0.076 A 
ATOM      8  C   UNL     1       7.899  -0.230   0.000  0.00  0.00    +0.095 A 
ATOM     19  N   UNL     1       7.742   1.262   0.000  0.00  0.00    -0.162 NA
ATOM     20  N   UNL     1       6.274   1.574   0.000  0.00  0.00    -0.180 N 
ATOM     21  C   UNL     1       5.524   2.873   0.000  0.00  0.00    +0.275 A 
ATOM     22  O   UNL     1       6.274   4.172   0.000  0.00  0.00    -0.266 OA
ENDROOT
BRANCH   8   9
ATOM      9  C   UNL     1       9.198  -0.980   0.000  0.00  0.00    +0.002 A 
ATOM     10  C   UNL     1       9.198  -2.480   0.000  0.00  0.00    +0.010 A 
ATOM     11  C   UNL     1      10.497  -3.230   0.000  0.00  0.00    +0.005 A 
ATOM     12  C   UNL     1      11.796  -2.480   0.000  0.00  0.00    -0.042 A 
ATOM     17  C   UNL     1      11.796  -0.980   0.000  0.00  0.00    +0.005 A 
ATOM     18  C   UNL     1      10.497  -0.230   0.000  0.00  0.00    +0.010 A 
BRANCH  12  13
ATOM     13  C   UNL     1      13.095  -3.230   0.000  0.00  0.00    -0.013 C 
ATOM     14  C   UNL     1      14.394  -3.980   0.000  0.00  0.00    +0.015 C 
ATOM     15  C   UNL     1      13.845  -1.931   0.000  0.00  0.00    +0.015 C 
ATOM     16  C   UNL     1      12.345  -4.529   0.000  0.00  0.00    +0.015 C 
ENDBRANCH  12  13
ENDBRANCH   8   9
TORSDOF 2