REMARK  Name = 41098
REMARK  4 active torsions:
REMARK  status: ('A' for Active; 'I' for Inactive)
REMARK    1  A    between atoms: C_5  and  N_20
REMARK    2  A    between atoms: C_16  and  C_22
REMARK    3  A    between atoms: N_20  and  C_21
REMARK    4  A    between atoms: C_21  and  C_22
REMARK                            x       y       z     vdW  Elec       q    Type
REMARK                         _______ _______ _______ _____ _____    ______ ____
ROOT
ATOM      1  O   UNL     1      -6.120  -4.399   0.000  0.00  0.00    -0.285 OA
ATOM      2  C   UNL     1      -6.120  -5.899   0.000  0.00  0.00    +0.209 C 
ATOM      3  C   UNL     1      -7.419  -6.649   0.000  0.00  0.00    +0.034 A 
ATOM      4  C   UNL     1      -8.718  -5.899   0.000  0.00  0.00    +0.012 A 
ATOM      5  C   UNL     1     -10.017  -6.649   0.000  0.00  0.00    +0.001 A 
ATOM      6  C   UNL     1     -10.017  -8.149   0.000  0.00  0.00    +0.001 A 
ATOM      7  C   UNL     1      -8.718  -8.899   0.000  0.00  0.00    +0.012 A 
ATOM      8  C   UNL     1      -7.419  -8.149   0.000  0.00  0.00    +0.034 A 
ATOM      9  C   UNL     1      -6.120  -8.899   0.000  0.00  0.00    +0.207 C 
ATOM     10  C   UNL     1      -4.821  -8.149   0.000  0.00  0.00    +0.113 C 
ATOM     11 CL   UNL     1      -3.522  -8.899   0.000  0.00  0.00    -0.078 Cl
ATOM     12  O   UNL     1      -6.120 -10.400   0.000  0.00  0.00    -0.286 OA
ATOM     13  C   UNL     1      -4.821  -6.649   0.000  0.00  0.00    +0.097 C 
ENDROOT
BRANCH  13  14
ATOM     14  N   UNL     1      -3.522  -5.899   0.000  0.00  0.00    -0.339 N 
ATOM     15  H   UNL     1      -2.670  -6.392   0.000  0.00  0.00    +0.146 HD
BRANCH  14  16
ATOM     16  C   UNL     1      -3.522  -4.399   0.000  0.00  0.00    +0.106 C 
BRANCH  16  17
ATOM     17  C   UNL     1      -2.223  -3.650   0.000  0.00  0.00    +0.054 C 
BRANCH  17  18
ATOM     18  C   UNL     1      -0.924  -4.399   0.000  0.00  0.00    -0.046 A 
ATOM     19  C   UNL     1      -0.924  -5.899   0.000  0.00  0.00    +0.004 A 
ATOM     20  C   UNL     1       0.375  -6.649   0.000  0.00  0.00    +0.000 A 
ATOM     21  C   UNL     1       1.674  -5.899   0.000  0.00  0.00    +0.000 A 
ATOM     22  C   UNL     1       1.674  -4.399   0.000  0.00  0.00    +0.000 A 
ATOM     23  C   UNL     1       0.375  -3.650   0.000  0.00  0.00    +0.004 A 
ENDBRANCH  17  18
ENDBRANCH  16  17
ENDBRANCH  14  16
ENDBRANCH  13  14
TORSDOF 4