REMARK  Name = 366289
REMARK  2 active torsions:
REMARK  status: ('A' for Active; 'I' for Inactive)
REMARK    1  A    between atoms: C_7  and  C_8
REMARK    2  A    between atoms: C_16  and  C_18
REMARK                            x       y       z     vdW  Elec       q    Type
REMARK                         _______ _______ _______ _____ _____    ______ ____
ROOT
ATOM      1  C   UNL     1      -7.245   3.000   0.000  0.00  0.00    +0.047 A 
ATOM      2  C   UNL     1      -7.245   1.500   0.000  0.00  0.00    +0.007 A 
ATOM      3  C   UNL     1      -5.946   0.750   0.000  0.00  0.00    +0.047 A 
ATOM      4  C   UNL     1      -4.647   1.500   0.000  0.00  0.00    +0.144 A 
ATOM      5  N   UNL     1      -3.348   0.750   0.000  0.00  0.00    -0.215 NA
ATOM      6  C   UNL     1      -2.049   1.500   0.000  0.00  0.00    +0.132 A 
ATOM      7  C   UNL     1      -0.750   0.750   0.000  0.00  0.00    +0.088 C 
ATOM      8  N   UNL     1      -2.049   3.000   0.000  0.00  0.00    -0.197 NA
ATOM      9  C   UNL     1      -3.348   3.750   0.000  0.00  0.00    +0.241 A 
ATOM     10  N   UNL     1      -3.348   5.250   0.000  0.00  0.00    -0.192 NA
ATOM     11  C   UNL     1      -4.647   6.000   0.000  0.00  0.00    +0.186 A 
ATOM     16  N   UNL     1      -5.946   5.250   0.000  0.00  0.00    -0.210 NA
ATOM     17  N   UNL     1      -4.647   3.000   0.000  0.00  0.00    -0.246 N 
ATOM     18  C   UNL     1      -5.946   3.750   0.000  0.00  0.00    +0.144 A 
ENDROOT
BRANCH  11  12
ATOM     12  C   UNL     1      -4.647   7.500   0.000  0.00  0.00    +0.250 C 
ATOM     13 CL   UNL     1      -3.147   7.500   0.000  0.00  0.00    -0.075 Cl
ATOM     14 CL   UNL     1      -4.647   9.000   0.000  0.00  0.00    -0.075 Cl
ATOM     15 CL   UNL     1      -6.147   7.500   0.000  0.00  0.00    -0.075 Cl
ENDBRANCH  11  12
TORSDOF 1