REMARK  Name = 358311
REMARK  5 active torsions:
REMARK  status: ('A' for Active; 'I' for Inactive)
REMARK    1  A    between atoms: C_2  and  C_4
REMARK    2  A    between atoms: C_2  and  C_19
REMARK    3  A    between atoms: C_3  and  N_20
REMARK    4  A    between atoms: N_6  and  C_21
REMARK    5  A    between atoms: C_12  and  C_18
REMARK                            x       y       z     vdW  Elec       q    Type
REMARK                         _______ _______ _______ _____ _____    ______ ____
ROOT
ATOM     11  C   UNL     1       6.870  -0.101   0.000  0.00  0.00    +0.124 A 
ATOM     12  C   UNL     1       8.169   0.650   0.000  0.00  0.00    +0.267 A 
ATOM     13  N   UNL     1       9.468  -0.100   0.000  0.00  0.00    -0.274 N 
ATOM     14  C   UNL     1       9.468  -1.600   0.000  0.00  0.00    +0.330 A 
ATOM     15  O   UNL     1      10.767  -2.350   0.000  0.00  0.00    -0.246 OA
ATOM     16  N   UNL     1       8.169  -2.350   0.000  0.00  0.00    -0.285 N 
ATOM     17  C   UNL     1       8.169  -3.850   0.000  0.00  0.00    +0.155 C 
ATOM     18  H   UNL     1      10.767   0.650   0.000  0.00  0.00    +0.173 HD
ATOM     19  O   UNL     1       8.169   2.150   0.000  0.00  0.00    -0.267 OA
ATOM     20  C   UNL     1       6.870  -1.601   0.000  0.00  0.00    +0.116 A 
ENDROOT
BRANCH  20  21
ATOM     21  N   UNL     1       5.571  -2.350   0.000  0.00  0.00    -0.344 N 
ATOM     22  H   UNL     1       5.571  -3.335   0.000  0.00  0.00    +0.144 HD
ATOM     23  H   UNL     1       4.719  -1.858   0.000  0.00  0.00    +0.144 HD
ENDBRANCH  20  21
BRANCH  11   2
ATOM      1  O   UNL     1       5.571   2.150   0.000  0.00  0.00    -0.287 OA
ATOM      2  C   UNL     1       5.571   0.649   0.000  0.00  0.00    +0.195 C 
BRANCH   2   3
ATOM      3  C   UNL     1       4.272  -0.101   0.000  0.00  0.00    +0.052 C 
ATOM      4  C   UNL     1       2.973   0.649   0.000  0.00  0.00    +0.012 C 
BRANCH   4   5
ATOM      5  C   UNL     1       1.674  -0.101   0.000  0.00  0.00    -0.025 A 
ATOM      6  C   UNL     1       2.973  -0.851   0.000  0.00  0.00    +0.008 A 
ATOM      7  C   UNL     1       4.272  -0.101   0.000  0.00  0.00    +0.001 A 
ATOM      8  C   UNL     1       4.272   1.400   0.000  0.00  0.00    +0.000 A 
ATOM      9  C   UNL     1       2.973   2.150   0.000  0.00  0.00    +0.001 A 
ATOM     10  C   UNL     1       1.674   1.400   0.000  0.00  0.00    +0.008 A 
ENDBRANCH   4   5
ENDBRANCH   2   3
ENDBRANCH  11   2
TORSDOF 4