REMARK  Name = 327702
REMARK  3 active torsions:
REMARK  status: ('A' for Active; 'I' for Inactive)
REMARK    1  A    between atoms: C_18  and  S_19
REMARK    2  A    between atoms: S_19  and  C_20
REMARK    3  A    between atoms: C_20  and  C_21
REMARK                            x       y       z     vdW  Elec       q    Type
REMARK                         _______ _______ _______ _____ _____    ______ ____
ROOT
ATOM      1  C   UNL     1       0.750   7.500   0.000  0.00  0.00    +0.001 A 
ATOM      2  C   UNL     1       0.750   6.000   0.000  0.00  0.00    +0.009 A 
ATOM      3  C   UNL     1       2.049   5.250   0.000  0.00  0.00    -0.008 A 
ATOM      4  C   UNL     1       2.049   3.750   0.000  0.00  0.00    -0.008 A 
ATOM      5  C   UNL     1       3.348   3.000   0.000  0.00  0.00    +0.010 A 
ATOM      6  C   UNL     1       3.348   1.500   0.000  0.00  0.00    +0.011 A 
ATOM      7  C   UNL     1       2.049   0.750   0.000  0.00  0.00    +0.001 A 
ATOM      8  C   UNL     1       0.750   1.500   0.000  0.00  0.00    +0.001 A 
ATOM      9  C   UNL     1       4.647   3.750   0.000  0.00  0.00    +0.102 A 
ATOM     10  N   UNL     1       5.946   3.000   0.000  0.00  0.00    -0.218 NA
ATOM     11  C   UNL     1       7.245   3.750   0.000  0.00  0.00    +0.210 A 
ATOM     20  N   UNL     1       7.245   5.250   0.000  0.00  0.00    -0.122 NA
ATOM     21  N   UNL     1       5.946   6.000   0.000  0.00  0.00    -0.145 NA
ATOM     22  C   UNL     1       4.647   5.250   0.000  0.00  0.00    +0.120 A 
ATOM     23  C   UNL     1       0.750   3.000   0.000  0.00  0.00    +0.009 A 
ATOM     24  C   UNL     1       3.348   6.000   0.000  0.00  0.00    +0.012 A 
ATOM     25  C   UNL     1       3.348   7.500   0.000  0.00  0.00    +0.011 A 
ATOM     26  C   UNL     1       2.049   8.250   0.000  0.00  0.00    +0.001 A 
ENDROOT
BRANCH  11  12
ATOM     12  S   UNL     1       8.544   3.000   0.000  0.00  0.00    -0.080 S 
BRANCH  12  13
ATOM     13  C   UNL     1       9.843   3.750   0.000  0.00  0.00    +0.112 C 
BRANCH  13  14
ATOM     14  C   UNL     1       9.843   5.250   0.000  0.00  0.00    -0.037 A 
ATOM     15  C   UNL     1      11.142   6.000   0.000  0.00  0.00    +0.004 A 
ATOM     16  C   UNL     1      11.142   7.500   0.000  0.00  0.00    +0.000 A 
ATOM     17  C   UNL     1       9.843   8.250   0.000  0.00  0.00    +0.000 A 
ATOM     18  C   UNL     1       8.544   7.500   0.000  0.00  0.00    +0.000 A 
ATOM     19  C   UNL     1       8.544   6.000   0.000  0.00  0.00    +0.004 A 
ENDBRANCH  13  14
ENDBRANCH  12  13
ENDBRANCH  11  12
TORSDOF 3