REMARK  Name = 216623
REMARK  5 active torsions:
REMARK  status: ('A' for Active; 'I' for Inactive)
REMARK    1  A    between atoms: C_1  and  C_13
REMARK    2  A    between atoms: C_3  and  N_16
REMARK    3  A    between atoms: C_8  and  N_19
REMARK    4  A    between atoms: C_12  and  S_20
REMARK    5  A    between atoms: S_20  and  C_21
REMARK                            x       y       z     vdW  Elec       q    Type
REMARK                         _______ _______ _______ _____ _____    ______ ____
ROOT
ATOM     12  N   UNL     1      -9.387   4.569   0.000  0.00  0.00    -0.268 N 
ATOM     13  H   UNL     1     -10.287   4.169   0.000  0.00  0.00    +0.156 HD
ATOM     14  C   UNL     1      -8.102   3.796   0.000  0.00  0.00    +0.308 C 
ATOM     15  N   UNL     1      -6.790   4.523   0.000  0.00  0.00    -0.269 N 
ATOM     16  H   UNL     1      -6.772   5.507   0.000  0.00  0.00    +0.156 HD
ATOM     25  O   UNL     1      -8.129   2.296   0.000  0.00  0.00    -0.252 OA
ENDROOT
BRANCH  12  11
ATOM      1  C   UNL     1     -10.232   7.026   0.000  0.00  0.00    +0.058 A 
ATOM      7  C   UNL     1      -9.945   8.499   0.000  0.00  0.00    +0.015 A 
ATOM      8  C   UNL     1      -8.526   8.986   0.000  0.00  0.00    +0.001 A 
ATOM      9  C   UNL     1      -7.395   8.002   0.000  0.00  0.00    +0.002 A 
ATOM     10  C   UNL     1      -7.682   6.529   0.000  0.00  0.00    +0.024 A 
ATOM     11  C   UNL     1      -9.100   6.042   0.000  0.00  0.00    +0.047 A 
BRANCH   1   2
ATOM      2  C   UNL     1     -11.650   6.539   0.000  0.00  0.00    +0.243 C 
ATOM      3  N   UNL     1     -11.938   5.067   0.000  0.00  0.00    -0.325 N 
ATOM      4  H   UNL     1     -11.195   4.420   0.000  0.00  0.00    +0.145 HD
ATOM      5  H   UNL     1     -12.869   4.747   0.000  0.00  0.00    +0.145 HD
ATOM      6  O   UNL     1     -12.782   7.524   0.000  0.00  0.00    -0.270 OA
ENDBRANCH   1   2
ENDBRANCH  12  11
BRANCH  15  17
ATOM     17  C   UNL     1      -5.505   3.749   0.000  0.00  0.00    +0.036 A 
ATOM     18  C   UNL     1      -5.532   2.249   0.000  0.00  0.00    +0.038 A 
ATOM     19  C   UNL     1      -4.246   1.476   0.000  0.00  0.00    +0.009 A 
ATOM     22  C   UNL     1      -2.934   2.203   0.000  0.00  0.00    +0.015 A 
ATOM     23  C   UNL     1      -2.907   3.703   0.000  0.00  0.00    +0.003 A 
ATOM     24  C   UNL     1      -4.192   4.476   0.000  0.00  0.00    +0.023 A 
BRANCH  19  20
ATOM     20  S   UNL     1      -4.273  -0.024   0.000  0.00  0.00    -0.129 S 
ATOM     21  C   UNL     1      -2.988  -0.797   0.000  0.00  0.00    +0.090 C 
ENDBRANCH  19  20
ENDBRANCH  15  17
TORSDOF 4