REMARK  Name = 270063
REMARK  7 active torsions:
REMARK  status: ('A' for Active; 'I' for Inactive)
REMARK    1  A    between atoms: C_7  and  O_15
REMARK    2  A    between atoms: C_10  and  C_12
REMARK    3  A    between atoms: C_14  and  N_16
REMARK    4  A    between atoms: C_14  and  C_17
REMARK    5  A    between atoms: C_14  and  C_18
REMARK    6  A    between atoms: C_14  and  C_19
REMARK    7  A    between atoms: C_19  and  O_21
REMARK                            x       y       z     vdW  Elec       q    Type
REMARK                         _______ _______ _______ _____ _____    ______ ____
ROOT
ATOM      1  C   UNL     1      -1.775   6.074   0.000  0.00  0.00    +0.001 A 
ATOM      2  C   UNL     1      -1.775   4.574   0.000  0.00  0.00    +0.001 A 
ATOM      3  C   UNL     1      -0.475   3.824   0.000  0.00  0.00    +0.010 A 
ATOM      4  C   UNL     1       0.824   4.574   0.000  0.00  0.00    +0.004 A 
ATOM      5  C   UNL     1       2.123   3.824   0.000  0.00  0.00    +0.050 A 
ATOM      6 CL   UNL     1       2.123   2.324   0.000  0.00  0.00    -0.083 Cl
ATOM      7  C   UNL     1       3.422   4.574   0.000  0.00  0.00    +0.037 A 
ATOM      8  C   UNL     1       3.422   6.074   0.000  0.00  0.00    +0.080 A 
ATOM     20  C   UNL     1       2.123   6.824   0.000  0.00  0.00    +0.137 A 
ATOM     23  C   UNL     1       0.824   6.074   0.000  0.00  0.00    +0.026 A 
ATOM     24  C   UNL     1      -0.475   6.824   0.000  0.00  0.00    +0.012 A 
ENDROOT
BRANCH   8   9
ATOM      9  C   UNL     1       4.721   6.824   0.000  0.00  0.00    +0.248 C 
ATOM     10  N   UNL     1       6.020   6.074   0.000  0.00  0.00    -0.296 N 
ATOM     11  H   UNL     1       6.020   5.089   0.000  0.00  0.00    +0.150 HD
ATOM     19  O   UNL     1       4.721   8.324   0.000  0.00  0.00    -0.270 OA
BRANCH  10  12
ATOM     12  C   UNL     1       7.319   6.824   0.000  0.00  0.00    +0.126 C 
ATOM     17  C   UNL     1       6.569   8.123   0.000  0.00  0.00    +0.043 C 
ATOM     18  C   UNL     1       8.069   5.524   0.000  0.00  0.00    +0.043 C 
BRANCH  12  13
ATOM     13  C   UNL     1       8.618   7.574   0.000  0.00  0.00    +0.328 C 
ATOM     16  O   UNL     1       8.618   9.074   0.000  0.00  0.00    -0.249 OA
BRANCH  13  14
ATOM     14  O   UNL     1       9.917   6.824   0.000  0.00  0.00    -0.479 OA
ATOM     15  H   UNL     1       9.917   5.887   0.000  0.00  0.00    +0.295 HD
ENDBRANCH  13  14
ENDBRANCH  12  13
ENDBRANCH  10  12
ENDBRANCH   8   9
BRANCH  20  21
ATOM     21  O   UNL     1       2.123   8.324   0.000  0.00  0.00    -0.505 OA
ATOM     22  H   UNL     1       2.934   8.792   0.000  0.00  0.00    +0.292 HD
ENDBRANCH  20  21
TORSDOF 5