REMARK  Name = 27032
REMARK  3 active torsions:
REMARK  status: ('A' for Active; 'I' for Inactive)
REMARK    1  A    between atoms: C_5  and  C_8
REMARK    2  A    between atoms: C_6  and  O_17
REMARK    3  A    between atoms: O_17  and  C_18
REMARK                            x       y       z     vdW  Elec       q    Type
REMARK                         _______ _______ _______ _____ _____    ______ ____
ROOT
ATOM      1  H   UNL     1       6.981   1.616   0.000  0.00  0.00    +0.166 HD
ATOM      2  N   UNL     1       5.867   0.612   0.000  0.00  0.00    -0.354 N 
ATOM      3  C   UNL     1       4.399   0.924   0.000  0.00  0.00    +0.047 A 
ATOM      4  C   UNL     1       3.650   2.223   0.000  0.00  0.00    +0.026 A 
ATOM      5  C   UNL     1       2.150   2.223   0.000  0.00  0.00    +0.002 A 
ATOM      6  C   UNL     1       1.400   0.924   0.000  0.00  0.00    +0.001 A 
ATOM      7  C   UNL     1       2.150  -0.375   0.000  0.00  0.00    +0.010 A 
ATOM      8  C   UNL     1       3.650  -0.375   0.000  0.00  0.00    +0.000 A 
ATOM      9  C   UNL     1       4.653  -1.490   0.000  0.00  0.00    +0.036 A 
ATOM     10  C   UNL     1       6.024  -0.880   0.000  0.00  0.00    +0.047 A 
ENDROOT
BRANCH  10  11
ATOM     11  C   UNL     1       7.323  -1.630   0.000  0.00  0.00    -0.001 A 
ATOM     12  C   UNL     1       7.323  -3.130   0.000  0.00  0.00    +0.013 A 
ATOM     13  C   UNL     1       8.622  -3.880   0.000  0.00  0.00    +0.046 A 
ATOM     14  C   UNL     1       9.921  -3.130   0.000  0.00  0.00    +0.120 A 
ATOM     17  C   UNL     1       9.921  -1.630   0.000  0.00  0.00    +0.046 A 
ATOM     18  C   UNL     1       8.622  -0.880   0.000  0.00  0.00    +0.013 A 
BRANCH  14  15
ATOM     15  O   UNL     1      11.220  -3.880   0.000  0.00  0.00    -0.495 OA
ATOM     16  C   UNL     1      12.519  -3.130   0.000  0.00  0.00    +0.277 C 
ENDBRANCH  14  15
ENDBRANCH  10  11
TORSDOF 2