REMARK  Name = 277184
REMARK  11 active torsions:
REMARK  status: ('A' for Active; 'I' for Inactive)
REMARK    1  A    between atoms: C_2  and  N_18
REMARK    2  A    between atoms: N_4  and  C_21
REMARK    3  A    between atoms: C_5  and  C_22
REMARK    4  A    between atoms: C_14  and  O_16
REMARK    5  A    between atoms: O_16  and  C_23
REMARK    6  A    between atoms: N_17  and  C_24
REMARK    7  A    between atoms: N_17  and  C_25
REMARK    8  A    between atoms: N_17  and  C_26
REMARK    9  A    between atoms: C_23  and  C_24
REMARK   10  A    between atoms: S_27  and  O_29
REMARK   11  A    between atoms: S_27  and  O_31
REMARK                            x       y       z     vdW  Elec       q    Type
REMARK                         _______ _______ _______ _____ _____    ______ ____
ROOT
ATOM      1  S   UNL     1      13.507   3.844   0.000  0.00  0.00    +0.205 S 
ATOM      4  O   UNL     1      12.015   4.001   0.000  0.00  0.00    -0.118 OA
ATOM      7  O   UNL     1      14.999   3.687   0.000  0.00  0.00    -0.118 OA
ENDROOT
BRANCH   1   2
ATOM      2  O   UNL     1      13.350   2.352   0.000  0.00  0.00    -0.231 OA
ATOM      3  H   UNL     1      12.464   1.958   0.000  0.00  0.00    +0.247 HD
ENDBRANCH   1   2
BRANCH   1   5
ATOM      5  O   UNL     1      13.664   5.336   0.000  0.00  0.00    -0.231 OA
ATOM      6  H   UNL     1      14.550   5.730   0.000  0.00  0.00    +0.247 HD
ENDBRANCH   1   5
TORSDOF 2