REMARK  Name = 309892
REMARK  7 active torsions:
REMARK  status: ('A' for Active; 'I' for Inactive)
REMARK    1  A    between atoms: C_2  and  C_24
REMARK    2  A    between atoms: C_6  and  N_28
REMARK    3  A    between atoms: C_7  and  C_26
REMARK    4  A    between atoms: C_12  and  C_20
REMARK    5  A    between atoms: C_13  and  C_20
REMARK    6  A    between atoms: C_14  and  N_25
REMARK    7  A    between atoms: C_15  and  N_25
REMARK                            x       y       z     vdW  Elec       q    Type
REMARK                         _______ _______ _______ _____ _____    ______ ____
ROOT
ATOM      8  C   UNL     1       8.316  -1.337   0.000  0.00  0.00    +0.086 A 
ATOM      9  S   UNL     1       6.825  -1.181   0.000  0.00  0.00    -0.067 S 
ATOM     10  C   UNL     1       6.513   0.287   0.000  0.00  0.00    +0.090 A 
ATOM     20  C   UNL     1       7.812   1.037   0.000  0.00  0.00    +0.101 A 
ATOM     23  C   UNL     1       8.927   0.033   0.000  0.00  0.00    +0.062 A 
ENDROOT
BRANCH  23  24
ATOM     24  N   UNL     1      10.394   0.345   0.000  0.00  0.00    -0.356 N 
ATOM     25  H   UNL     1      10.698   1.281   0.000  0.00  0.00    +0.142 HD
ATOM     26  H   UNL     1      11.053  -0.387   0.000  0.00  0.00    +0.142 HD
ENDBRANCH  23  24
BRANCH   8   6
ATOM      6  C   UNL     1       9.066  -2.636   0.000  0.00  0.00    +0.236 C 
ATOM      7  O   UNL     1       8.316  -3.936   0.000  0.00  0.00    -0.283 OA
BRANCH   6   5
ATOM      1  C   UNL     1      14.174  -1.136   0.000  0.00  0.00    +0.031 A 
ATOM      2  C   UNL     1      12.875  -1.886   0.000  0.00  0.00    +0.022 A 
ATOM      3  C   UNL     1      12.875  -3.386   0.000  0.00  0.00    +0.136 A 
ATOM      4  O   UNL     1      11.448  -3.850   0.000  0.00  0.00    -0.452 OA
ATOM      5  C   UNL     1      10.566  -2.636   0.000  0.00  0.00    +0.177 A 
ATOM     27  C   UNL     1      14.174  -4.136   0.000  0.00  0.00    +0.048 A 
ATOM     28  C   UNL     1      15.473  -3.386   0.000  0.00  0.00    +0.023 A 
ATOM     29  C   UNL     1      11.448  -1.423   0.000  0.00  0.00    +0.061 A 
ATOM     30  C   UNL     1      15.473  -1.886   0.000  0.00  0.00    +0.042 A 
ATOM     31 CL   UNL     1      16.772  -1.136   0.000  0.00  0.00    -0.084 Cl
ENDBRANCH   6   5
ENDBRANCH   8   6
BRANCH  10  11
ATOM     11  N   UNL     1       5.143   0.897   0.000  0.00  0.00    -0.308 N 
ATOM     12  H   UNL     1       4.346   0.318   0.000  0.00  0.00    +0.153 HD
BRANCH  11  13
ATOM     13  C   UNL     1       4.986   2.389   0.000  0.00  0.00    +0.032 A 
ATOM     14  C   UNL     1       3.615   2.999   0.000  0.00  0.00    +0.023 A 
ATOM     15  C   UNL     1       3.459   4.490   0.000  0.00  0.00    +0.002 A 
ATOM     16  C   UNL     1       4.672   5.372   0.000  0.00  0.00    +0.003 A 
ATOM     17  C   UNL     1       6.042   4.762   0.000  0.00  0.00    -0.049 A 
ATOM     18  C   UNL     1       7.256   5.644   0.000  0.00  0.00    +0.044 C 
ATOM     19  C   UNL     1       6.199   3.270   0.000  0.00  0.00    +0.026 A 
ENDBRANCH  11  13
ENDBRANCH  10  11
BRANCH  20  21
ATOM     21  C   UNL     1       7.969   2.528   0.000  0.00  0.00    +0.103 C 
ATOM     22  N   UNL     1       8.125   4.020   0.000  0.00  0.00    -0.191 NA
ENDBRANCH  20  21
TORSDOF 6