REMARK  Name = 367480
REMARK  3 active torsions:
REMARK  status: ('A' for Active; 'I' for Inactive)
REMARK    1  A    between atoms: C_3  and  C_16
REMARK    2  A    between atoms: C_5  and  N_22
REMARK    3  A    between atoms: C_7  and  C_9
REMARK                            x       y       z     vdW  Elec       q    Type
REMARK                         _______ _______ _______ _____ _____    ______ ____
ROOT
ATOM      1  N   UNL     1      -9.341  -6.821   0.000  0.00  0.00    -0.172 NA
ATOM      2  C   UNL     1      -8.877  -8.248   0.000  0.00  0.00    +0.094 A 
ATOM      9  C   UNL     1      -7.377  -8.248   0.000  0.00  0.00    +0.073 A 
ATOM     10  C   UNL     1      -6.914  -6.821   0.000  0.00  0.00    +0.121 A 
ATOM     22  N   UNL     1      -8.127  -5.939   0.000  0.00  0.00    -0.263 N 
ATOM     23  H   UNL     1      -8.127  -4.439   0.000  0.00  0.00    +0.190 HD
ENDROOT
BRANCH   2   3
ATOM      3  C   UNL     1      -9.759  -9.461   0.000  0.00  0.00    +0.002 A 
ATOM      4  C   UNL     1     -11.251  -9.305   0.000  0.00  0.00    +0.010 A 
ATOM      5  C   UNL     1     -12.133 -10.518   0.000  0.00  0.00    +0.001 A 
ATOM      6  C   UNL     1     -11.523 -11.888   0.000  0.00  0.00    +0.000 A 
ATOM      7  C   UNL     1     -10.031 -12.045   0.000  0.00  0.00    +0.001 A 
ATOM      8  C   UNL     1      -9.149 -10.832   0.000  0.00  0.00    +0.010 A 
ENDBRANCH   2   3
BRANCH  10  11
ATOM     11  N   UNL     1      -5.487  -6.358   0.000  0.00  0.00    -0.267 N 
ATOM     12  H   UNL     1      -4.756  -7.016   0.000  0.00  0.00    +0.157 HD
ATOM     13  C   UNL     1      -5.175  -4.891   0.000  0.00  0.00    +0.249 C 
ATOM     21  O   UNL     1      -6.290  -3.887   0.000  0.00  0.00    -0.270 OA
BRANCH  13  14
ATOM     14  C   UNL     1      -3.749  -4.427   0.000  0.00  0.00    +0.037 A 
ATOM     15  C   UNL     1      -2.634  -5.431   0.000  0.00  0.00    +0.014 A 
ATOM     16  C   UNL     1      -1.208  -4.967   0.000  0.00  0.00    +0.021 A 
ATOM     17  C   UNL     1      -0.896  -3.500   0.000  0.00  0.00    +0.041 A 
ATOM     18 CL   UNL     1       0.531  -3.036   0.000  0.00  0.00    -0.084 Cl
ATOM     19  C   UNL     1      -2.010  -2.496   0.000  0.00  0.00    +0.021 A 
ATOM     20  C   UNL     1      -3.437  -2.960   0.000  0.00  0.00    +0.014 A 
ENDBRANCH  13  14
ENDBRANCH  10  11
TORSDOF 3