REMARK  Name = 40467
REMARK  2 active torsions:
REMARK  status: ('A' for Active; 'I' for Inactive)
REMARK    1  A    between atoms: C_4  and  C_13
REMARK    2  A    between atoms: C_5  and  C_6
REMARK                            x       y       z     vdW  Elec       q    Type
REMARK                         _______ _______ _______ _____ _____    ______ ____
ROOT
ATOM      1  C   UNL     1      -3.000  -0.750   0.000  0.00  0.00    +0.004 A 
ATOM      2  C   UNL     1      -4.500  -0.750   0.000  0.00  0.00    +0.009 A 
ATOM      3  C   UNL     1      -5.250  -2.049   0.000  0.00  0.00    -0.016 A 
ATOM      4  C   UNL     1      -4.500  -3.348   0.000  0.00  0.00    +0.009 A 
ATOM      5  C   UNL     1      -3.000  -3.348   0.000  0.00  0.00    +0.004 A 
ATOM     12  C   UNL     1      -2.250  -2.049   0.000  0.00  0.00    -0.050 A 
ATOM     13  C   UNL     1      -0.750  -2.049   0.000  0.00  0.00    +0.044 C 
ENDROOT
BRANCH   3   6
ATOM      6  C   UNL     1      -6.750  -2.049   0.000  0.00  0.00    +0.010 A 
ATOM      7  C   UNL     1      -7.632  -3.263   0.000  0.00  0.00    +0.071 A 
ATOM      8  S   UNL     1      -7.168  -4.689   0.000  0.00  0.00    -0.043 S 
ATOM      9  S   UNL     1      -9.058  -2.799   0.000  0.00  0.00    -0.044 S 
ATOM     10  S   UNL     1      -9.058  -1.299   0.000  0.00  0.00    -0.059 S 
ATOM     11  C   UNL     1      -7.632  -0.836   0.000  0.00  0.00    +0.062 A 
ENDBRANCH   3   6
TORSDOF 1