REMARK  Name = 364889
REMARK  6 active torsions:
REMARK  status: ('A' for Active; 'I' for Inactive)
REMARK    1  A    between atoms: C_3  and  O_19
REMARK    2  A    between atoms: C_16  and  C_18
REMARK    3  A    between atoms: C_18  and  O_21
REMARK    4  A    between atoms: O_19  and  C_20
REMARK    5  A    between atoms: O_21  and  C_22
REMARK    6  A    between atoms: C_22  and  C_23
REMARK                            x       y       z     vdW  Elec       q    Type
REMARK                         _______ _______ _______ _____ _____    ______ ____
ROOT
ATOM      1  C   UNL     1       1.140   5.179   0.000  0.00  0.00    +0.004 A 
ATOM      2  C   UNL     1       1.028   3.684   0.000  0.00  0.00    +0.049 A 
ATOM      3  C   UNL     1       2.268   2.838   0.000  0.00  0.00    +0.162 A 
ATOM      6  C   UNL     1       3.619   3.489   0.000  0.00  0.00    +0.175 A 
ATOM      7  O   UNL     1       4.718   2.469   0.000  0.00  0.00    -0.450 OA
ATOM      8  C   UNL     1       6.202   2.693   0.000  0.00  0.00    +0.149 A 
ATOM      9  C   UNL     1       6.952   1.394   0.000  0.00  0.00    +0.049 A 
ATOM     10  C   UNL     1       8.452   1.394   0.000  0.00  0.00    +0.019 A 
ATOM     11  C   UNL     1       9.202   2.693   0.000  0.00  0.00    +0.061 A 
ATOM     17  C   UNL     1       8.452   3.992   0.000  0.00  0.00    +0.041 A 
ATOM     18  C   UNL     1       6.952   3.992   0.000  0.00  0.00    +0.071 A 
ATOM     19  N   UNL     1       6.404   5.388   0.000  0.00  0.00    -0.337 N 
ATOM     20  H   UNL     1       7.424   6.488   0.000  0.00  0.00    +0.147 HD
ATOM     21  C   UNL     1       4.970   5.830   0.000  0.00  0.00    +0.140 C 
ATOM     22  C   UNL     1       3.731   4.985   0.000  0.00  0.00    +0.015 A 
ATOM     23  C   UNL     1       2.492   5.830   0.000  0.00  0.00    +0.009 A 
ENDROOT
BRANCH   3   4
ATOM      4  O   UNL     1       2.155   1.343   0.000  0.00  0.00    -0.491 OA
ATOM      5  C   UNL     1       0.804   0.692   0.000  0.00  0.00    +0.277 C 
ENDBRANCH   3   4
BRANCH  11  12
ATOM     12  C   UNL     1      10.702   2.693   0.000  0.00  0.00    +0.339 C 
ATOM     16  O   UNL     1      11.452   1.394   0.000  0.00  0.00    -0.245 OA
BRANCH  12  13
ATOM     13  O   UNL     1      11.452   3.992   0.000  0.00  0.00    -0.461 OA
BRANCH  13  14
ATOM     14  C   UNL     1      10.702   5.291   0.000  0.00  0.00    +0.229 C 
ATOM     15  C   UNL     1      11.452   6.590   0.000  0.00  0.00    +0.048 C 
ENDBRANCH  13  14
ENDBRANCH  12  13
ENDBRANCH  11  12
TORSDOF 4