REMARK  Name = 37883
REMARK  8 active torsions:
REMARK  status: ('A' for Active; 'I' for Inactive)
REMARK    1  A    between atoms: C_2  and  C_4
REMARK    2  A    between atoms: C_4  and  C_5
REMARK    3  A    between atoms: C_4  and  C_7
REMARK    4  A    between atoms: C_4  and  S_9
REMARK    5  A    between atoms: C_5  and  C_6
REMARK    6  A    between atoms: C_7  and  C_8
REMARK    7  A    between atoms: S_9  and  C_10
REMARK    8  A    between atoms: C_10  and  C_11
REMARK                            x       y       z     vdW  Elec       q    Type
REMARK                         _______ _______ _______ _____ _____    ______ ____
ROOT
ATOM      5  C   UNL     1       3.000  -5.250   0.000  0.00  0.00    +0.092 C 
ENDROOT
BRANCH   5   4
ATOM      1  N   UNL     1       0.750  -6.549   0.000  0.00  0.00    -0.328 N 
ATOM      2  H   UNL     1       1.242  -7.402   0.000  0.00  0.00    +0.145 HD
ATOM      3  H   UNL     1      -0.234  -6.549   0.000  0.00  0.00    +0.145 HD
ATOM      4  C   UNL     1       1.500  -5.250   0.000  0.00  0.00    +0.227 C 
ATOM     14  O   UNL     1       0.750  -3.951   0.000  0.00  0.00    -0.275 OA
ENDBRANCH   5   4
BRANCH   5  10
ATOM     10  C   UNL     1       4.500  -5.250   0.000  0.00  0.00    +0.023 C 
ATOM     11  C   UNL     1       5.250  -6.549   0.000  0.00  0.00    +0.006 C 
ENDBRANCH   5  10
BRANCH   5  12
ATOM     12  C   UNL     1       3.000  -6.750   0.000  0.00  0.00    +0.023 C 
ATOM     13  C   UNL     1       1.701  -7.500   0.000  0.00  0.00    +0.006 C 
ENDBRANCH   5  12
BRANCH   5   6
ATOM      6  S   UNL     1       3.000  -3.750   0.000  0.00  0.00    -0.141 S 
BRANCH   6   7
ATOM      7  C   UNL     1       4.299  -3.000   0.000  0.00  0.00    +0.096 C 
BRANCH   7   8
ATOM      8  C   UNL     1       4.299  -1.500   0.000  0.00  0.00    -0.024 C 
ATOM      9  C   UNL     1       3.000  -0.750   0.000  0.00  0.00    +0.005 C 
ENDBRANCH   7   8
ENDBRANCH   6   7
ENDBRANCH   5   6
TORSDOF 6