REMARK  Name = 29629
REMARK  3 active torsions:
REMARK  status: ('A' for Active; 'I' for Inactive)
REMARK    1  A    between atoms: N_3  and  C_7
REMARK    2  A    between atoms: C_7  and  C_8
REMARK    3  A    between atoms: C_8  and  O_9
REMARK                            x       y       z     vdW  Elec       q    Type
REMARK                         _______ _______ _______ _____ _____    ______ ____
ROOT
ATOM      1  S   UNL     1       1.320   1.636   0.000  0.00  0.00    -0.101 S 
ATOM      2  C   UNL     1       1.784   0.209   0.000  0.00  0.00    +0.095 C 
ATOM      3  C   UNL     1       3.284   0.209   0.000  0.00  0.00    +0.117 C 
ATOM      4  N   UNL     1       3.747   1.636   0.000  0.00  0.00    -0.316 N 
ATOM      9  C   UNL     1       2.534   2.517   0.000  0.00  0.00    +0.109 C 
ATOM     10  S   UNL     1       2.534   4.017   0.000  0.00  0.00    -0.028 S 
ENDROOT
BRANCH   4   5
ATOM      5  C   UNL     1       5.174   2.099   0.000  0.00  0.00    +0.134 C 
BRANCH   5   6
ATOM      6  C   UNL     1       6.288   1.095   0.000  0.00  0.00    +0.174 C 
BRANCH   6   7
ATOM      7  O   UNL     1       7.715   1.559   0.000  0.00  0.00    -0.393 OA
ATOM      8  H   UNL     1       8.436   0.910   0.000  0.00  0.00    +0.209 HD
ENDBRANCH   6   7
ENDBRANCH   5   6
ENDBRANCH   4   5
TORSDOF 3