REMARK  Name = 222365
REMARK  10 active torsions:
REMARK  status: ('A' for Active; 'I' for Inactive)
REMARK    1  A    between atoms: O_2  and  C_7
REMARK    2  A    between atoms: O_2  and  C_17
REMARK    3  A    between atoms: C_12  and  AS_21
REMARK    4  A    between atoms: C_14  and  O_23
REMARK    5  A    between atoms: C_17  and  C_18
REMARK    6  A    between atoms: C_18  and  O_19
REMARK    7  A    between atoms: C_18  and  C_20
REMARK    8  A    between atoms: C_20  and  AS_21
REMARK    9  A    between atoms: AS_21  and  O_22
REMARK   10  A    between atoms: O_23  and  C_24
REMARK                            x       y       z     vdW  Elec       q    Type
REMARK                         _______ _______ _______ _____ _____    ______ ____
ROOT
ATOM      9  C   UNL     1      -2.049   6.000   0.000  0.00  0.00    +0.000 C 
ENDROOT
BRANCH   9  23
ATOM     23  O   UNL     1      -3.348   5.250   0.000  0.00  0.00    +0.000 OA
ATOM     24  H   UNL     1      -4.188   5.735   0.000  0.00  0.00    +0.000 HD
ENDBRANCH   9  23
BRANCH   9   8
ATOM      8  C   UNL     1      -0.750   5.250   0.000  0.00  0.00    +0.000 C 
BRANCH   8   7
ATOM      7  O   UNL     1      -0.750   3.750   0.000  0.00  0.00    +0.000 OA
BRANCH   7   5
ATOM      1 CL   UNL     1      -5.946   0.750   0.000  0.00  0.00    +0.000 Cl
ATOM      2  C   UNL     1      -4.647   1.500   0.000  0.00  0.00    +0.000 A 
ATOM      3  C   UNL     1      -3.348   0.750   0.000  0.00  0.00    +0.000 A 
ATOM      4  C   UNL     1      -2.049   1.500   0.000  0.00  0.00    +0.000 A 
ATOM      5  C   UNL     1      -2.049   3.000   0.000  0.00  0.00    +0.000 A 
ATOM      6  C   UNL     1      -3.348   3.750   0.000  0.00  0.00    +0.000 A 
ATOM     25 CL   UNL     1      -0.750   0.750   0.000  0.00  0.00    +0.000 Cl
ATOM     26  C   UNL     1      -4.647   3.000   0.000  0.00  0.00    +0.000 A 
ENDBRANCH   7   5
ENDBRANCH   8   7
ENDBRANCH   9   8
BRANCH   9  10
ATOM     10  C   UNL     1      -2.049   7.500   0.000  0.00  0.00    +0.000 C 
BRANCH  10  11
ATOM     11 AS   UNL     1      -3.348   8.250   0.000  0.00  0.00    +0.000 As
ATOM     22  O   UNL     1      -4.098   6.951   0.000  0.00  0.00    +0.000 OA
BRANCH  11  14
ATOM     14  C   UNL     1      -4.647   9.000   0.000  0.00  0.00    +0.000 A 
ATOM     15  C   UNL     1      -4.647  10.500   0.000  0.00  0.00    +0.000 A 
ATOM     18  C   UNL     1      -5.946  11.250   0.000  0.00  0.00    +0.000 A 
ATOM     19  C   UNL     1      -7.245  10.500   0.000  0.00  0.00    +0.000 A 
ATOM     20  C   UNL     1      -7.245   9.000   0.000  0.00  0.00    +0.000 A 
ATOM     21  C   UNL     1      -5.946   8.250   0.000  0.00  0.00    +0.000 A 
BRANCH  15  16
ATOM     16  O   UNL     1      -3.348  11.250   0.000  0.00  0.00    +0.000 OA
ATOM     17  C   UNL     1      -2.049  10.500   0.000  0.00  0.00    +0.000 C 
ENDBRANCH  15  16
ENDBRANCH  11  14
BRANCH  11  12
ATOM     12  O   UNL     1      -2.598   9.549   0.000  0.00  0.00    +0.000 OA
ATOM     13  H   UNL     1      -1.628   9.549   0.000  0.00  0.00    +0.000 HD
ENDBRANCH  11  12
ENDBRANCH  10  11
ENDBRANCH   9  10
TORSDOF 9