REMARK  Name = 332452
REMARK  4 active torsions:
REMARK  status: ('A' for Active; 'I' for Inactive)
REMARK    1  A    between atoms: C_6  and  C_16
REMARK    2  A    between atoms: C_10  and  C_11
REMARK    3  A    between atoms: C_12  and  C_18
REMARK    4  A    between atoms: C_16  and  N_17
REMARK                            x       y       z     vdW  Elec       q    Type
REMARK                         _______ _______ _______ _____ _____    ______ ____
ROOT
ATOM      7  N   UNL     1       0.402  -0.090   0.000  0.00  0.00    -0.307 N 
ATOM      8  H   UNL     1       0.374   0.894   0.000  0.00  0.00    +0.149 HD
ATOM      9  C   UNL     1       1.655  -0.915   0.000  0.00  0.00    +0.254 C 
ATOM     16  O   UNL     1       1.567  -2.412   0.000  0.00  0.00    -0.270 OA
ENDROOT
BRANCH   9  10
ATOM     10  C   UNL     1       2.996  -0.243   0.000  0.00  0.00    +0.117 A 
ATOM     11  C   UNL     1       3.240   1.237   0.000  0.00  0.00    +0.081 A 
ATOM     12  C   UNL     1       2.186   2.305   0.000  0.00  0.00    +0.069 C 
ATOM     13  N   UNL     1       4.723   1.462   0.000  0.00  0.00    -0.146 NA
ATOM     14  N   UNL     1       5.395   0.122   0.000  0.00  0.00    -0.110 NA
ATOM     15  S   UNL     1       4.328  -0.932   0.000  0.00  0.00    +0.041 S 
ENDBRANCH   9  10
BRANCH   7   6
ATOM      6  C   UNL     1      -0.802  -0.985   0.000  0.00  0.00    +0.144 C 
BRANCH   6   5
ATOM      1  C   UNL     1      -4.932   0.800   0.000  0.00  0.00    +0.004 A 
ATOM      2  C   UNL     1      -4.759  -0.690   0.000  0.00  0.00    +0.020 A 
ATOM      3  C   UNL     1      -3.382  -1.285   0.000  0.00  0.00    +0.048 A 
ATOM      4 CL   UNL     1      -3.209  -2.775   0.000  0.00  0.00    -0.083 Cl
ATOM      5  C   UNL     1      -2.179  -0.390   0.000  0.00  0.00    +0.023 A 
ATOM     17  C   UNL     1      -2.352   1.100   0.000  0.00  0.00    +0.129 A 
ATOM     18  F   UNL     1      -1.148   1.995   0.000  0.00  0.00    -0.205 F 
ATOM     19  C   UNL     1      -3.729   1.695   0.000  0.00  0.00    +0.039 A 
ENDBRANCH   6   5
ENDBRANCH   7   6
TORSDOF 3