REMARK  Name = 345845
REMARK  5 active torsions:
REMARK  status: ('A' for Active; 'I' for Inactive)
REMARK    1  A    between atoms: C_6  and  C_25
REMARK    2  A    between atoms: C_12  and  C_26
REMARK    3  A    between atoms: C_14  and  C_16
REMARK    4  A    between atoms: C_15  and  C_27
REMARK    5  A    between atoms: C_18  and  N_28
REMARK                            x       y       z     vdW  Elec       q    Type
REMARK                         _______ _______ _______ _____ _____    ______ ____
ROOT
ATOM      1  C   UNL     1       0.750   3.000   0.000  0.00  0.00    +0.028 A 
ATOM      2  C   UNL     1       0.750   1.500   0.000  0.00  0.00    +0.002 A 
ATOM      3  C   UNL     1       2.049   0.750   0.000  0.00  0.00    +0.001 A 
ATOM      4  C   UNL     1       3.348   1.500   0.000  0.00  0.00    +0.012 A 
ATOM      5  C   UNL     1       3.348   3.000   0.000  0.00  0.00    +0.026 A 
ATOM      6  C   UNL     1       4.647   3.750   0.000  0.00  0.00    +0.083 A 
ATOM      7  N   UNL     1       5.946   3.000   0.000  0.00  0.00    -0.246 NA
ATOM      8  C   UNL     1       7.245   3.750   0.000  0.00  0.00    +0.075 A 
ATOM     23  C   UNL     1       7.245   5.250   0.000  0.00  0.00    +0.032 A 
ATOM     24  C   UNL     1       5.946   6.000   0.000  0.00  0.00    -0.038 A 
ATOM     25  C   UNL     1       5.946   7.500   0.000  0.00  0.00    +0.044 C 
ATOM     26  C   UNL     1       4.647   5.250   0.000  0.00  0.00    +0.025 A 
ATOM     27  C   UNL     1       3.348   6.000   0.000  0.00  0.00    +0.048 A 
ATOM     28  C   UNL     1       3.348   7.500   0.000  0.00  0.00    +0.066 C 
ATOM     29  N   UNL     1       2.049   5.250   0.000  0.00  0.00    -0.251 NA
ATOM     30  C   UNL     1       2.049   3.750   0.000  0.00  0.00    +0.073 A 
ENDROOT
BRANCH   8   9
ATOM      9  C   UNL     1       8.544   3.000   0.000  0.00  0.00    +0.043 A 
ATOM     10  C   UNL     1       9.843   3.750   0.000  0.00  0.00    +0.045 A 
ATOM     14  C   UNL     1      11.142   3.000   0.000  0.00  0.00    +0.022 A 
ATOM     15  C   UNL     1      12.441   3.750   0.000  0.00  0.00    +0.012 A 
ATOM     16  C   UNL     1      13.740   3.000   0.000  0.00  0.00    +0.001 A 
ATOM     17  C   UNL     1      13.740   1.500   0.000  0.00  0.00    +0.002 A 
ATOM     18  C   UNL     1      12.441   0.750   0.000  0.00  0.00    +0.028 A 
ATOM     19  C   UNL     1      11.142   1.500   0.000  0.00  0.00    +0.073 A 
ATOM     20  N   UNL     1       9.843   0.750   0.000  0.00  0.00    -0.251 NA
ATOM     21  C   UNL     1       8.544   1.500   0.000  0.00  0.00    +0.050 A 
ATOM     22  C   UNL     1       7.245   0.750   0.000  0.00  0.00    +0.066 C 
BRANCH  10  11
ATOM     11  N   UNL     1       9.843   5.250   0.000  0.00  0.00    -0.357 N 
ATOM     12  H   UNL     1       8.991   5.742   0.000  0.00  0.00    +0.142 HD
ATOM     13  H   UNL     1      10.696   5.742   0.000  0.00  0.00    +0.142 HD
ENDBRANCH  10  11
ENDBRANCH   8   9
TORSDOF 2