REMARK  Name = 319424
REMARK  2 active torsions:
REMARK  status: ('A' for Active; 'I' for Inactive)
REMARK    1  A    between atoms: C_3  and  C_6
REMARK    2  A    between atoms: C_11  and  C_12
REMARK                            x       y       z     vdW  Elec       q    Type
REMARK                         _______ _______ _______ _____ _____    ______ ____
ROOT
ATOM      4  C   UNL     1       3.964   1.995   0.000  0.00  0.00    +0.206 A 
ATOM      5  S   UNL     1       4.846   0.782   0.000  0.00  0.00    -0.027 S 
ATOM      6  C   UNL     1       6.272   1.245   0.000  0.00  0.00    +0.188 A 
ATOM      7  N   UNL     1       7.486   0.363   0.000  0.00  0.00    -0.259 N 
ATOM      8  H   UNL     1       7.468  -0.621   0.000  0.00  0.00    +0.157 HD
ATOM      9  C   UNL     1       8.729   1.202   0.000  0.00  0.00    +0.255 C 
ATOM     18  O   UNL     1       8.624   2.699   0.000  0.00  0.00    -0.270 OA
ATOM     19  N   UNL     1       6.272   2.745   0.000  0.00  0.00    -0.125 NA
ATOM     20  N   UNL     1       4.846   3.209   0.000  0.00  0.00    -0.136 NA
ENDROOT
BRANCH   9  10
ATOM     10  C   UNL     1      10.077   0.545   0.000  0.00  0.00    +0.107 A 
ATOM     11  C   UNL     1      11.321   1.384   0.000  0.00  0.00    +0.138 A 
ATOM     12  F   UNL     1      11.216   2.880   0.000  0.00  0.00    -0.205 F 
ATOM     13  C   UNL     1      12.669   0.726   0.000  0.00  0.00    +0.039 A 
ATOM     14  C   UNL     1      12.774  -0.770   0.000  0.00  0.00    +0.006 A 
ATOM     15  C   UNL     1      11.530  -1.609   0.000  0.00  0.00    +0.039 A 
ATOM     16  C   UNL     1      10.182  -0.952   0.000  0.00  0.00    +0.138 A 
ATOM     17  F   UNL     1       8.938  -1.790   0.000  0.00  0.00    -0.205 F 
ENDBRANCH   9  10
BRANCH   4   2
ATOM      1  F   UNL     1       0.964   1.995   0.000  0.00  0.00    -0.164 F 
ATOM      2  C   UNL     1       2.464   1.995   0.000  0.00  0.00    +0.443 C 
ATOM      3  F   UNL     1       2.464   0.495   0.000  0.00  0.00    -0.164 F 
ATOM     21  F   UNL     1       2.464   3.495   0.000  0.00  0.00    -0.164 F 
ENDBRANCH   4   2
TORSDOF 2