REMARK  Name = 299967
REMARK  6 active torsions:
REMARK  status: ('A' for Active; 'I' for Inactive)
REMARK    1  A    between atoms: C_1  and  C_12
REMARK    2  A    between atoms: C_6  and  C_18
REMARK    3  A    between atoms: C_9  and  O_11
REMARK    4  A    between atoms: C_9  and  C_18
REMARK    5  A    between atoms: O_11  and  C_19
REMARK    6  A    between atoms: C_19  and  C_20
REMARK                            x       y       z     vdW  Elec       q    Type
REMARK                         _______ _______ _______ _____ _____    ______ ____
ROOT
ATOM      1  C   UNL     1      -2.010   0.838   0.000  0.00  0.00    +0.183 A 
ATOM      8  N   UNL     1      -1.105  -0.358   0.000  0.00  0.00    -0.144 NA
ATOM      9  N   UNL     1       0.313   0.133   0.000  0.00  0.00    -0.210 N 
ATOM     10  C   UNL     1       1.748  -0.303   0.000  0.00  0.00    +0.063 A 
ATOM     17  C   UNL     1       2.606   0.928   0.000  0.00  0.00    +0.072 A 
ATOM     18  S   UNL     1       1.700   2.124   0.000  0.00  0.00    -0.056 S 
ATOM     19  C   UNL     1       0.283   1.633   0.000  0.00  0.00    +0.196 A 
ATOM     20  N   UNL     1      -1.152   2.068   0.000  0.00  0.00    -0.200 NA
ENDROOT
BRANCH   1   2
ATOM      2  C   UNL     1      -3.510   0.808   0.000  0.00  0.00    +0.021 A 
ATOM      3  C   UNL     1      -4.285   2.092   0.000  0.00  0.00    +0.011 A 
ATOM      4  C   UNL     1      -5.785   2.063   0.000  0.00  0.00    +0.001 A 
ATOM      5  C   UNL     1      -6.509   0.750   0.000  0.00  0.00    +0.000 A 
ATOM      6  C   UNL     1      -5.734  -0.534   0.000  0.00  0.00    +0.001 A 
ATOM      7  C   UNL     1      -4.234  -0.505   0.000  0.00  0.00    +0.011 A 
ENDBRANCH   1   2
BRANCH  10  11
ATOM     11  C   UNL     1       2.239  -1.720   0.000  0.00  0.00    +0.176 C 
BRANCH  11  12
ATOM     12  C   UNL     1       3.712  -2.003   0.000  0.00  0.00    +0.313 C 
ATOM     13  O   UNL     1       4.204  -3.421   0.000  0.00  0.00    -0.250 OA
BRANCH  12  14
ATOM     14  O   UNL     1       4.694  -0.869   0.000  0.00  0.00    -0.465 OA
BRANCH  14  15
ATOM     15  C   UNL     1       6.167  -1.152   0.000  0.00  0.00    +0.229 C 
ATOM     16  C   UNL     1       6.658  -2.570   0.000  0.00  0.00    +0.048 C 
ENDBRANCH  14  15
ENDBRANCH  12  14
ENDBRANCH  11  12
ENDBRANCH  10  11
TORSDOF 5