REMARK  Name = 279895
REMARK  9 active torsions:
REMARK  status: ('A' for Active; 'I' for Inactive)
REMARK    1  A    between atoms: C_3  and  C_4
REMARK    2  A    between atoms: C_3  and  C_7
REMARK    3  A    between atoms: C_6  and  O_11
REMARK    4  A    between atoms: C_7  and  C_12
REMARK    5  A    between atoms: C_8  and  O_16
REMARK    6  A    between atoms: C_12  and  C_13
REMARK    7  A    between atoms: C_13  and  C_14
REMARK    8  A    between atoms: C_14  and  C_15
REMARK    9  A    between atoms: C_15  and  C_17
REMARK                            x       y       z     vdW  Elec       q    Type
REMARK                         _______ _______ _______ _____ _____    ______ ____
ROOT
ATOM      1  C   UNL     1      -5.400  -6.984   0.000  0.00  0.00    +0.019 A 
ATOM      2  C   UNL     1      -5.400  -8.484   0.000  0.00  0.00    +0.046 A 
ATOM      3  C   UNL     1      -4.101  -9.234   0.000  0.00  0.00    +0.120 A 
ATOM      6  C   UNL     1      -2.802  -8.484   0.000  0.00  0.00    +0.091 A 
ATOM      7  C   UNL     1      -2.802  -6.984   0.000  0.00  0.00    +0.131 A 
ATOM     10  C   UNL     1      -4.101  -6.234   0.000  0.00  0.00    +0.067 A 
ENDROOT
BRANCH   3   4
ATOM      4  O   UNL     1      -4.101 -10.734   0.000  0.00  0.00    -0.507 OA
ATOM      5  H   UNL     1      -4.912 -11.202   0.000  0.00  0.00    +0.292 HD
ENDBRANCH   3   4
BRANCH   7   8
ATOM      8  O   UNL     1      -1.503  -6.234   0.000  0.00  0.00    -0.506 OA
ATOM      9  H   UNL     1      -0.691  -6.702   0.000  0.00  0.00    +0.292 HD
ENDBRANCH   7   8
BRANCH  10  11
ATOM     11  C   UNL     1      -4.101  -4.734   0.000  0.00  0.00    +0.232 C 
ATOM     19  O   UNL     1      -5.400  -3.984   0.000  0.00  0.00    -0.283 OA
BRANCH  11  12
ATOM     12  C   UNL     1      -2.802  -3.984   0.000  0.00  0.00    +0.203 C 
ATOM     18  O   UNL     1      -2.802  -2.484   0.000  0.00  0.00    -0.289 OA
BRANCH  12  13
ATOM     13  C   UNL     1      -1.503  -4.734   0.000  0.00  0.00    +0.083 C 
BRANCH  13  14
ATOM     14  C   UNL     1      -0.204  -3.984   0.000  0.00  0.00    +0.008 C 
BRANCH  14  15
ATOM     15  C   UNL     1       1.095  -4.734   0.000  0.00  0.00    +0.000 C 
BRANCH  15  16
ATOM     16  C   UNL     1       1.095  -6.234   0.000  0.00  0.00    -0.003 C 
ATOM     17  C   UNL     1       2.394  -6.984   0.000  0.00  0.00    +0.004 C 
ENDBRANCH  15  16
ENDBRANCH  14  15
ENDBRANCH  13  14
ENDBRANCH  12  13
ENDBRANCH  11  12
ENDBRANCH  10  11
TORSDOF 8