REMARK  Name = 302867
REMARK  8 active torsions:
REMARK  status: ('A' for Active; 'I' for Inactive)
REMARK    1  A    between atoms: C_3  and  O_11
REMARK    2  A    between atoms: C_4  and  C_18
REMARK    3  A    between atoms: C_6  and  N_14
REMARK    4  A    between atoms: C_8  and  N_21
REMARK    5  A    between atoms: O_11  and  C_20
REMARK    6  A    between atoms: C_18  and  O_19
REMARK    7  A    between atoms: O_19  and  C_22
REMARK    8  A    between atoms: C_22  and  C_23
REMARK                            x       y       z     vdW  Elec       q    Type
REMARK                         _______ _______ _______ _____ _____    ______ ____
ROOT
ATOM      6  N   UNL     1      -1.247  -1.417   0.000  0.00  0.00    -0.239 NA
ATOM      7  C   UNL     1       0.197  -1.825   0.000  0.00  0.00    +0.176 C 
ATOM      8  C   UNL     1       0.715  -3.232   0.000  0.00  0.00    +0.337 C 
ATOM      9  N   UNL     1       2.214  -3.174   0.000  0.00  0.00    -0.167 N 
ATOM     10  H   UNL     1       3.142  -4.353   0.000  0.00  0.00    +0.302 HD
ATOM     11  C   UNL     1       2.622  -1.731   0.000  0.00  0.00    +0.278 C 
ATOM     15  N   UNL     1      -0.119  -4.479   0.000  0.00  0.00    -0.098 NA
ATOM     16  H   UNL     1      -1.615  -4.380   0.000  0.00  0.00    +0.363 HD
ATOM     17  C   UNL     1       1.375  -0.897   0.000  0.00  0.00    +0.176 C 
ENDROOT
BRANCH   6   3
ATOM      1  C   UNL     1      -4.840  -3.101   0.000  0.00  0.00    +0.048 A 
ATOM      2  C   UNL     1      -3.765  -2.055   0.000  0.00  0.00    +0.031 A 
ATOM      3  C   UNL     1      -2.322  -2.463   0.000  0.00  0.00    +0.065 A 
ATOM      4  C   UNL     1      -1.953  -3.917   0.000  0.00  0.00    +0.031 A 
ATOM      5  C   UNL     1      -3.028  -4.963   0.000  0.00  0.00    +0.048 A 
ATOM     23  C   UNL     1      -4.472  -4.555   0.000  0.00  0.00    +0.120 A 
BRANCH  23  24
ATOM     24  O   UNL     1      -5.547  -5.602   0.000  0.00  0.00    -0.495 OA
ATOM     25  C   UNL     1      -6.990  -5.194   0.000  0.00  0.00    +0.277 C 
ENDBRANCH  23  24
ENDBRANCH   6   3
BRANCH  11  12
ATOM     12  N   UNL     1       4.029  -1.212   0.000  0.00  0.00    -0.250 N 
ATOM     13  H   UNL     1       4.197  -0.242   0.000  0.00  0.00    +0.288 HD
ATOM     14  H   UNL     1       4.786  -1.842   0.000  0.00  0.00    +0.288 HD
ENDBRANCH  11  12
BRANCH  17  18
ATOM     18  C   UNL     1       1.578   0.590   0.000  0.00  0.00    +0.349 C 
ATOM     22  O   UNL     1       0.393   1.508   0.000  0.00  0.00    -0.245 OA
BRANCH  18  19
ATOM     19  O   UNL     1       2.967   1.157   0.000  0.00  0.00    -0.461 OA
BRANCH  19  20
ATOM     20  C   UNL     1       3.170   2.643   0.000  0.00  0.00    +0.229 C 
ATOM     21  C   UNL     1       1.984   3.562   0.000  0.00  0.00    +0.048 C 
ENDBRANCH  19  20
ENDBRANCH  18  19
ENDBRANCH  17  18
TORSDOF 6