REMARK  Name = 326422
REMARK  7 active torsions:
REMARK  status: ('A' for Active; 'I' for Inactive)
REMARK    1  A    between atoms: O_1  and  C_2
REMARK    2  A    between atoms: O_1  and  C_15
REMARK    3  A    between atoms: C_7  and  N_19
REMARK    4  A    between atoms: C_14  and  C_21
REMARK    5  A    between atoms: C_15  and  C_16
REMARK    6  A    between atoms: C_16  and  C_17
REMARK    7  A    between atoms: C_17  and  C_18
REMARK                            x       y       z     vdW  Elec       q    Type
REMARK                         _______ _______ _______ _____ _____    ______ ____
ROOT
ATOM     10  N   UNL     1       0.560  -2.170   0.000  0.00  0.00    -0.269 N 
ATOM     11  H   UNL     1       0.838  -3.114   0.000  0.00  0.00    +0.156 HD
ATOM     12  C   UNL     1       1.594  -1.084   0.000  0.00  0.00    +0.310 C 
ATOM     13  N   UNL     1       3.052  -1.436   0.000  0.00  0.00    -0.247 N 
ATOM     14  H   UNL     1       3.330  -2.380   0.000  0.00  0.00    +0.158 HD
ATOM     15  C   UNL     1       4.086  -0.350   0.000  0.00  0.00    +0.189 A 
ATOM     16  S   UNL     1       5.573  -0.548   0.000  0.00  0.00    -0.036 S 
ATOM     17  C   UNL     1       6.221   0.805   0.000  0.00  0.00    +0.101 A 
ATOM     18  C   UNL     1       7.696   1.076   0.000  0.00  0.00    +0.075 C 
ATOM     19  N   UNL     1       5.135   1.839   0.000  0.00  0.00    -0.145 NA
ATOM     20  N   UNL     1       3.815   1.126   0.000  0.00  0.00    -0.126 NA
ATOM     21  O   UNL     1       1.170   0.355   0.000  0.00  0.00    -0.252 OA
ENDROOT
BRANCH  10   9
ATOM      6  C   UNL     1      -3.814  -1.113   0.000  0.00  0.00    +0.121 A 
ATOM      7  C   UNL     1      -3.390  -2.552   0.000  0.00  0.00    +0.047 A 
ATOM      8  C   UNL     1      -1.932  -2.904   0.000  0.00  0.00    +0.027 A 
ATOM      9  C   UNL     1      -0.898  -1.818   0.000  0.00  0.00    +0.035 A 
ATOM     22  C   UNL     1      -1.322  -0.379   0.000  0.00  0.00    +0.027 A 
ATOM     23  C   UNL     1      -2.780  -0.026   0.000  0.00  0.00    +0.047 A 
BRANCH   6   1
ATOM      1  O   UNL     1      -5.272  -0.760   0.000  0.00  0.00    -0.492 OA
BRANCH   1   2
ATOM      2  C   UNL     1      -5.696   0.678   0.000  0.00  0.00    +0.229 C 
BRANCH   2   3
ATOM      3  C   UNL     1      -4.662   1.765   0.000  0.00  0.00    +0.041 C 
BRANCH   3   4
ATOM      4  C   UNL     1      -5.085   3.204   0.000  0.00  0.00    -0.000 C 
ATOM      5  C   UNL     1      -4.051   4.290   0.000  0.00  0.00    +0.004 C 
ENDBRANCH   3   4
ENDBRANCH   2   3
ENDBRANCH   1   2
ENDBRANCH   6   1
ENDBRANCH  10   9
TORSDOF 5