REMARK  Name = 319012
REMARK  12 active torsions:
REMARK  status: ('A' for Active; 'I' for Inactive)
REMARK    1  A    between atoms: O_1  and  C_3
REMARK    2  A    between atoms: O_1  and  C_14
REMARK    3  A    between atoms: O_2  and  C_4
REMARK    4  A    between atoms: O_2  and  C_15
REMARK    5  A    between atoms: O_5  and  C_7
REMARK    6  A    between atoms: O_5  and  C_16
REMARK    7  A    between atoms: N_17  and  C_18
REMARK    8  A    between atoms: C_18  and  C_19
REMARK    9  A    between atoms: C_19  and  C_20
REMARK   10  A    between atoms: C_20  and  C_21
REMARK   11  A    between atoms: C_21  and  C_22
REMARK   12  A    between atoms: C_22  and  O_23
REMARK                            x       y       z     vdW  Elec       q    Type
REMARK                         _______ _______ _______ _____ _____    ______ ____
ROOT
ATOM      3  C   UNL     1       4.272   1.400   0.000  0.00  0.00    +0.206 A 
ATOM      4  C   UNL     1       4.272  -0.101   0.000  0.00  0.00    +0.166 A 
ATOM      5  C   UNL     1       5.571  -0.851   0.000  0.00  0.00    +0.063 A 
ATOM      6  C   UNL     1       6.870  -0.101   0.000  0.00  0.00    +0.047 A 
ATOM      7  C   UNL     1       8.169  -0.851   0.000  0.00  0.00    +0.130 A 
ATOM      8  N   UNL     1       8.169  -2.350   0.000  0.00  0.00    -0.328 N 
ATOM      9  H   UNL     1       7.317  -2.843   0.000  0.00  0.00    +0.147 HD
ATOM     17  N   UNL     1       9.468  -0.101   0.000  0.00  0.00    -0.220 NA
ATOM     18  C   UNL     1       9.468   1.400   0.000  0.00  0.00    +0.224 A 
ATOM     19  N   UNL     1       8.169   2.150   0.000  0.00  0.00    -0.231 NA
ATOM     20  C   UNL     1       6.870   1.400   0.000  0.00  0.00    +0.121 A 
ATOM     23  C   UNL     1       5.571   2.150   0.000  0.00  0.00    +0.191 A 
ENDROOT
BRANCH   3   1
ATOM      1  O   UNL     1       2.973   2.150   0.000  0.00  0.00    -0.488 OA
ATOM      2  C   UNL     1       1.674   1.400   0.000  0.00  0.00    +0.277 C 
ENDBRANCH   3   1
BRANCH   4  21
ATOM     21  O   UNL     1       2.973  -0.851   0.000  0.00  0.00    -0.491 OA
ATOM     22  C   UNL     1       1.674  -0.101   0.000  0.00  0.00    +0.277 C 
ENDBRANCH   4  21
BRANCH  23  24
ATOM     24  O   UNL     1       5.571   3.650   0.000  0.00  0.00    -0.489 OA
ATOM     25  C   UNL     1       6.870   4.399   0.000  0.00  0.00    +0.277 C 
ENDBRANCH  23  24
BRANCH   8  10
ATOM     10  C   UNL     1       9.468  -3.100   0.000  0.00  0.00    +0.103 C 
BRANCH  10  11
ATOM     11  C   UNL     1      10.767  -2.350   0.000  0.00  0.00    +0.019 C 
BRANCH  11  12
ATOM     12  C   UNL     1      12.066  -3.100   0.000  0.00  0.00    +0.004 C 
BRANCH  12  13
ATOM     13  C   UNL     1      13.365  -2.350   0.000  0.00  0.00    +0.028 C 
BRANCH  13  14
ATOM     14  C   UNL     1      14.664  -3.100   0.000  0.00  0.00    +0.156 C 
BRANCH  14  15
ATOM     15  O   UNL     1      14.664  -4.601   0.000  0.00  0.00    -0.395 OA
ATOM     16  H   UNL     1      13.824  -5.086   0.000  0.00  0.00    +0.209 HD
ENDBRANCH  14  15
ENDBRANCH  13  14
ENDBRANCH  12  13
ENDBRANCH  11  12
ENDBRANCH  10  11
ENDBRANCH   8  10
TORSDOF 9