REMARK  Name = 372769
REMARK  3 active torsions:
REMARK  status: ('A' for Active; 'I' for Inactive)
REMARK    1  A    between atoms: C_7  and  C_9
REMARK    2  A    between atoms: C_11  and  N_18
REMARK    3  A    between atoms: C_15  and  C_16
REMARK                            x       y       z     vdW  Elec       q    Type
REMARK                         _______ _______ _______ _____ _____    ______ ____
ROOT
ATOM      7  C   UNL     1       6.750   3.348   0.000  0.00  0.00    +0.250 C 
ATOM      8  N   UNL     1       7.500   2.049   0.000  0.00  0.00    -0.281 N 
ATOM      9  H   UNL     1       7.008   1.196   0.000  0.00  0.00    +0.155 HD
ATOM     18  O   UNL     1       7.500   4.647   0.000  0.00  0.00    -0.270 OA
ENDROOT
BRANCH   7   6
ATOM      1 CL   UNL     1       0.750   3.348   0.000  0.00  0.00    -0.083 Cl
ATOM      2  C   UNL     1       2.250   3.348   0.000  0.00  0.00    +0.042 A 
ATOM      3  C   UNL     1       3.000   2.049   0.000  0.00  0.00    +0.040 A 
ATOM      4  C   UNL     1       4.500   2.049   0.000  0.00  0.00    +0.054 A 
ATOM      5 CL   UNL     1       5.250   0.750   0.000  0.00  0.00    -0.083 Cl
ATOM      6  C   UNL     1       5.250   3.348   0.000  0.00  0.00    +0.055 A 
ATOM     19  C   UNL     1       4.500   4.647   0.000  0.00  0.00    +0.016 A 
ATOM     20  C   UNL     1       3.000   4.647   0.000  0.00  0.00    +0.021 A 
ENDBRANCH   7   6
BRANCH   8  10
ATOM     10  C   UNL     1       9.000   2.049   0.000  0.00  0.00    +0.035 A 
ATOM     11  C   UNL     1       9.750   0.750   0.000  0.00  0.00    +0.023 A 
ATOM     12  C   UNL     1      11.250   0.750   0.000  0.00  0.00    +0.003 A 
ATOM     13  C   UNL     1      12.000   2.049   0.000  0.00  0.00    +0.017 A 
ATOM     14  C   UNL     1      11.250   3.348   0.000  0.00  0.00    +0.026 A 
ATOM     17  C   UNL     1       9.750   3.348   0.000  0.00  0.00    +0.040 A 
BRANCH  14  15
ATOM     15  C   UNL     1      12.000   4.647   0.000  0.00  0.00    -0.070 C 
ATOM     16  C   UNL     1      12.750   5.946   0.000  0.00  0.00    +0.009 C 
ENDBRANCH  14  15
ENDBRANCH   8  10
TORSDOF 3