REMARK  Name = 37812
REMARK  1 active torsions:
REMARK  status: ('A' for Active; 'I' for Inactive)
REMARK    1  A    between atoms: C_6  and  C_7
REMARK                            x       y       z     vdW  Elec       q    Type
REMARK                         _______ _______ _______ _____ _____    ______ ____
ROOT
ATOM      1  C   UNL     1      -2.049  -0.750   0.000  0.00  0.00    +0.029 A 
ATOM      2  C   UNL     1      -3.348  -1.500   0.000  0.00  0.00    +0.079 A 
ATOM      3  C   UNL     1      -3.348  -3.000   0.000  0.00  0.00    +0.040 A 
ATOM      4  C   UNL     1      -2.049  -3.750   0.000  0.00  0.00    +0.017 A 
ATOM      5  C   UNL     1      -0.750  -3.000   0.000  0.00  0.00    +0.001 A 
ATOM      6  S   UNL     1      -4.775  -3.463   0.000  0.00  0.00    -0.067 S 
ATOM      7  C   UNL     1      -5.656  -2.250   0.000  0.00  0.00    +0.111 A 
ATOM     14  N   UNL     1      -4.775  -1.037   0.000  0.00  0.00    -0.239 NA
ATOM     15  C   UNL     1      -0.750  -1.500   0.000  0.00  0.00    +0.002 A 
ENDROOT
BRANCH   7   8
ATOM      8  C   UNL     1      -7.156  -2.250   0.000  0.00  0.00    +0.025 A 
ATOM      9  C   UNL     1      -7.906  -3.549   0.000  0.00  0.00    +0.121 A 
ATOM     10  N   UNL     1      -9.406  -3.549   0.000  0.00  0.00    -0.263 NA
ATOM     11  C   UNL     1     -10.156  -2.250   0.000  0.00  0.00    +0.111 A 
ATOM     12  C   UNL     1      -9.406  -0.951   0.000  0.00  0.00    +0.020 A 
ATOM     13  C   UNL     1      -7.906  -0.951   0.000  0.00  0.00    +0.013 A 
ENDBRANCH   7   8
TORSDOF 1