REMARK  Name = 359472
REMARK  5 active torsions:
REMARK  status: ('A' for Active; 'I' for Inactive)
REMARK    1  A    between atoms: C_2  and  C_11
REMARK    2  A    between atoms: C_6  and  C_16
REMARK    3  A    between atoms: C_9  and  C_22
REMARK    4  A    between atoms: C_11  and  C_12
REMARK    5  A    between atoms: C_12  and  C_13
REMARK                            x       y       z     vdW  Elec       q    Type
REMARK                         _______ _______ _______ _____ _____    ______ ____
ROOT
ATOM      1  N   UNL     1       1.574   7.774   0.000  0.00  0.00    -0.199 NA
ATOM      2  C   UNL     1       1.574   6.274   0.000  0.00  0.00    +0.136 A 
ATOM      6  N   UNL     1       2.873   5.524   0.000  0.00  0.00    -0.199 NA
ATOM      7  C   UNL     1       4.172   6.274   0.000  0.00  0.00    +0.226 A 
ATOM      8  N   UNL     1       5.471   5.524   0.000  0.00  0.00    -0.250 N 
ATOM      9  H   UNL     1       5.471   4.540   0.000  0.00  0.00    +0.158 HD
ATOM     10  C   UNL     1       6.770   6.274   0.000  0.00  0.00    +0.250 C 
ATOM     17  O   UNL     1       8.069   5.524   0.000  0.00  0.00    -0.270 OA
ATOM     18  N   UNL     1       4.172   7.774   0.000  0.00  0.00    -0.180 NA
ATOM     19  C   UNL     1       2.873   8.524   0.000  0.00  0.00    +0.226 A 
ATOM     20  N   UNL     1       2.873  10.025   0.000  0.00  0.00    -0.250 N 
ATOM     21  H   UNL     1       3.725  10.517   0.000  0.00  0.00    +0.158 HD
ATOM     22  C   UNL     1       1.574  10.775   0.000  0.00  0.00    +0.250 C 
ATOM     29  O   UNL     1       1.574  12.275   0.000  0.00  0.00    -0.270 OA
ENDROOT
BRANCH  10  11
ATOM     11  C   UNL     1       6.770   7.774   0.000  0.00  0.00    +0.037 A 
ATOM     12  C   UNL     1       8.069   8.524   0.000  0.00  0.00    +0.013 A 
ATOM     13  C   UNL     1       8.069  10.025   0.000  0.00  0.00    +0.001 A 
ATOM     14  C   UNL     1       6.770  10.775   0.000  0.00  0.00    +0.000 A 
ATOM     15  C   UNL     1       5.471  10.025   0.000  0.00  0.00    +0.001 A 
ATOM     16  C   UNL     1       5.471   8.524   0.000  0.00  0.00    +0.013 A 
ENDBRANCH  10  11
BRANCH  22  23
ATOM     23  C   UNL     1       0.275  10.025   0.000  0.00  0.00    +0.037 A 
ATOM     24  C   UNL     1       0.275   8.524   0.000  0.00  0.00    +0.013 A 
ATOM     25  C   UNL     1      -1.025   7.774   0.000  0.00  0.00    +0.001 A 
ATOM     26  C   UNL     1      -2.324   8.524   0.000  0.00  0.00    +0.000 A 
ATOM     27  C   UNL     1      -2.324  10.025   0.000  0.00  0.00    +0.001 A 
ATOM     28  C   UNL     1      -1.025  10.775   0.000  0.00  0.00    +0.013 A 
ENDBRANCH  22  23
BRANCH   2   3
ATOM      3  C   UNL     1       0.275   5.524   0.000  0.00  0.00    +0.076 C 
BRANCH   3   4
ATOM      4  C   UNL     1      -1.025   6.274   0.000  0.00  0.00    +0.004 C 
ATOM      5  C   UNL     1      -2.324   5.524   0.000  0.00  0.00    +0.004 C 
ENDBRANCH   3   4
ENDBRANCH   2   3
TORSDOF 4