REMARK  Name = 292253
REMARK  6 active torsions:
REMARK  status: ('A' for Active; 'I' for Inactive)
REMARK    1  A    between atoms: C_6  and  O_27
REMARK    2  A    between atoms: C_15  and  O_21
REMARK    3  A    between atoms: N_16  and  C_19
REMARK    4  A    between atoms: C_19  and  C_22
REMARK    5  A    between atoms: C_28  and  S_29
REMARK    6  A    between atoms: S_29  and  O_32
REMARK                            x       y       z     vdW  Elec       q    Type
REMARK                         _______ _______ _______ _____ _____    ______ ____
ROOT
ATOM      1  C   UNL     1     -13.165  -4.979   0.000  0.00  0.00    +0.228 C 
ATOM      2  S   UNL     1     -11.665  -4.979   0.000  0.00  0.00    +0.077 S 
ATOM      5  O   UNL     1     -11.665  -3.479   0.000  0.00  0.00    -0.148 OA
ATOM      6  O   UNL     1     -11.665  -6.479   0.000  0.00  0.00    -0.148 OA
ENDROOT
BRANCH   2   3
ATOM      3  O   UNL     1     -10.165  -4.979   0.000  0.00  0.00    -0.254 OA
ATOM      4  H   UNL     1      -9.680  -5.819   0.000  0.00  0.00    +0.244 HD
ENDBRANCH   2   3
TORSDOF 1