REMARK  Name = 22801
REMARK  5 active torsions:
REMARK  status: ('A' for Active; 'I' for Inactive)
REMARK    1  A    between atoms: N_2  and  C_18
REMARK    2  A    between atoms: C_14  and  C_20
REMARK    3  A    between atoms: C_17  and  C_19
REMARK    4  A    between atoms: C_18  and  C_19
REMARK    5  A    between atoms: C_20  and  C_21
REMARK                            x       y       z     vdW  Elec       q    Type
REMARK                         _______ _______ _______ _____ _____    ______ ____
ROOT
ATOM      1  O   UNL     1      -9.181   4.435   0.000  0.00  0.00    -0.270 OA
ATOM      2  C   UNL     1     -10.296   3.431   0.000  0.00  0.00    +0.254 C 
ATOM      3  C   UNL     1     -11.763   3.743   0.000  0.00  0.00    +0.049 A 
ATOM      4  C   UNL     1     -12.513   5.042   0.000  0.00  0.00    +0.014 A 
ATOM      5  C   UNL     1     -14.013   5.042   0.000  0.00  0.00    +0.001 A 
ATOM      6  C   UNL     1     -14.763   3.743   0.000  0.00  0.00    +0.001 A 
ATOM      7  C   UNL     1     -14.013   2.444   0.000  0.00  0.00    +0.014 A 
ATOM      8  C   UNL     1     -12.513   2.444   0.000  0.00  0.00    +0.049 A 
ATOM      9  C   UNL     1     -11.509   1.329   0.000  0.00  0.00    +0.254 C 
ATOM     10  O   UNL     1     -11.821  -0.138   0.000  0.00  0.00    -0.270 OA
ATOM     11  N   UNL     1     -10.139   1.939   0.000  0.00  0.00    -0.234 N 
ENDROOT
BRANCH  11  12
ATOM     12  C   UNL     1      -8.840   1.189   0.000  0.00  0.00    +0.123 C 
BRANCH  12  13
ATOM     13  C   UNL     1      -7.541   1.939   0.000  0.00  0.00    +0.075 C 
BRANCH  13  14
ATOM     14  C   UNL     1      -6.242   1.189   0.000  0.00  0.00    +0.043 A 
ATOM     15  C   UNL     1      -6.242  -0.311   0.000  0.00  0.00    +0.023 A 
ATOM     16  C   UNL     1      -4.943  -1.061   0.000  0.00  0.00    +0.007 A 
ATOM     17  C   UNL     1      -3.644  -0.311   0.000  0.00  0.00    -0.030 A 
ATOM     20  C   UNL     1      -3.644   1.189   0.000  0.00  0.00    +0.114 A 
ATOM     21  N   UNL     1      -4.943   1.939   0.000  0.00  0.00    -0.260 NA
BRANCH  17  18
ATOM     18  C   UNL     1      -2.345  -1.061   0.000  0.00  0.00    +0.033 C 
ATOM     19  C   UNL     1      -1.046  -0.311   0.000  0.00  0.00    +0.009 C 
ENDBRANCH  17  18
ENDBRANCH  13  14
ENDBRANCH  12  13
ENDBRANCH  11  12
TORSDOF 4