REMARK  Name = 27389
REMARK  6 active torsions:
REMARK  status: ('A' for Active; 'I' for Inactive)
REMARK    1  A    between atoms: C_2  and  O_7
REMARK    2  A    between atoms: C_3  and  C_9
REMARK    3  A    between atoms: C_5  and  O_8
REMARK    4  A    between atoms: C_9  and  C_11
REMARK    5  A    between atoms: C_11  and  C_12
REMARK    6  A    between atoms: C_11  and  C_13
REMARK                            x       y       z     vdW  Elec       q    Type
REMARK                         _______ _______ _______ _____ _____    ______ ____
ROOT
ATOM      1  C   UNL     1      -3.522  -4.399   0.000  0.00  0.00    +0.060 A 
ATOM      2  C   UNL     1      -4.821  -5.149   0.000  0.00  0.00    +0.159 A 
ATOM      5  C   UNL     1      -4.821  -6.649   0.000  0.00  0.00    +0.158 A 
ATOM      8  C   UNL     1      -3.522  -7.399   0.000  0.00  0.00    +0.050 A 
ATOM      9  C   UNL     1      -2.223  -6.649   0.000  0.00  0.00    +0.015 A 
ATOM     10  C   UNL     1      -2.223  -5.149   0.000  0.00  0.00    +0.021 A 
ENDROOT
BRANCH   2   3
ATOM      3  O   UNL     1      -6.120  -4.399   0.000  0.00  0.00    -0.503 OA
ATOM      4  H   UNL     1      -6.120  -3.463   0.000  0.00  0.00    +0.292 HD
ENDBRANCH   2   3
BRANCH   5   6
ATOM      6  O   UNL     1      -6.120  -7.399   0.000  0.00  0.00    -0.503 OA
ATOM      7  H   UNL     1      -6.932  -6.931   0.000  0.00  0.00    +0.292 HD
ENDBRANCH   5   6
BRANCH  10  11
ATOM     11  C   UNL     1      -0.924  -4.399   0.000  0.00  0.00    +0.166 C 
ATOM     15  O   UNL     1       0.375  -5.149   0.000  0.00  0.00    -0.292 OA
BRANCH  11  12
ATOM     12  C   UNL     1      -0.924  -2.900   0.000  0.00  0.00    +0.054 C 
ATOM     13  C   UNL     1      -2.223  -2.150   0.000  0.00  0.00    +0.015 C 
ATOM     14  C   UNL     1       0.375  -2.150   0.000  0.00  0.00    +0.015 C 
ENDBRANCH  11  12
ENDBRANCH  10  11
TORSDOF 4