REMARK  Name = 278323
REMARK  8 active torsions:
REMARK  status: ('A' for Active; 'I' for Inactive)
REMARK    1  A    between atoms: S_2  and  C_5
REMARK    2  A    between atoms: S_2  and  C_15
REMARK    3  A    between atoms: N_7  and  C_17
REMARK    4  A    between atoms: N_8  and  C_18
REMARK    5  A    between atoms: C_10  and  S_11
REMARK    6  A    between atoms: S_11  and  C_19
REMARK    7  A    between atoms: C_15  and  C_16
REMARK    8  A    between atoms: C_19  and  C_20
REMARK                            x       y       z     vdW  Elec       q    Type
REMARK                         _______ _______ _______ _____ _____    ______ ____
ROOT
ATOM      6  C   UNL     1       5.571   0.649   0.000  0.00  0.00    +0.305 C 
ATOM      7  C   UNL     1       5.571  -0.851   0.000  0.00  0.00    +0.260 C 
ATOM      8  N   UNL     1       6.870  -1.601   0.000  0.00  0.00    -0.273 N 
ATOM      9  C   UNL     1       6.870  -3.100   0.000  0.00  0.00    +0.134 C 
ATOM     10  C   UNL     1       8.169  -0.851   0.000  0.00  0.00    +0.305 C 
ATOM     16  C   UNL     1       8.169   0.649   0.000  0.00  0.00    +0.260 C 
ATOM     17  O   UNL     1       9.468   1.400   0.000  0.00  0.00    -0.272 OA
ATOM     18  O   UNL     1       4.272  -1.601   0.000  0.00  0.00    -0.272 OA
ATOM     19  N   UNL     1       6.870   1.400   0.000  0.00  0.00    -0.273 N 
ATOM     20  C   UNL     1       6.870   2.900   0.000  0.00  0.00    +0.134 C 
ENDROOT
BRANCH   6   2
ATOM      1  O   UNL     1       5.022   2.699   0.000  0.00  0.00    -0.172 OA
ATOM      2  S   UNL     1       4.272   1.400   0.000  0.00  0.00    -0.004 S 
ATOM      5  O   UNL     1       3.522   0.101   0.000  0.00  0.00    -0.172 OA
BRANCH   2   3
ATOM      3  C   UNL     1       2.973   2.150   0.000  0.00  0.00    +0.165 C 
ATOM      4  C   UNL     1       2.973   3.650   0.000  0.00  0.00    +0.028 C 
ENDBRANCH   2   3
ENDBRANCH   6   2
BRANCH  10  11
ATOM     11  S   UNL     1       9.468  -1.601   0.000  0.00  0.00    -0.004 S 
ATOM     14  O   UNL     1       8.718  -2.900   0.000  0.00  0.00    -0.172 OA
ATOM     15  O   UNL     1      10.218  -0.301   0.000  0.00  0.00    -0.172 OA
BRANCH  11  12
ATOM     12  C   UNL     1      10.767  -2.350   0.000  0.00  0.00    +0.165 C 
ATOM     13  C   UNL     1      12.066  -1.601   0.000  0.00  0.00    +0.028 C 
ENDBRANCH  11  12
ENDBRANCH  10  11
TORSDOF 4