REMARK  Name = 290311
REMARK  9 active torsions:
REMARK  status: ('A' for Active; 'I' for Inactive)
REMARK    1  A    between atoms: N_5  and  C_14
REMARK    2  A    between atoms: C_7  and  C_14
REMARK    3  A    between atoms: C_7  and  C_15
REMARK    4  A    between atoms: C_10  and  N_16
REMARK    5  A    between atoms: C_11  and  C_17
REMARK    6  A    between atoms: C_11  and  C_18
REMARK    7  A    between atoms: C_12  and  C_25
REMARK    8  A    between atoms: C_19  and  C_25
REMARK    9  A    between atoms: C_25  and  C_26
REMARK                            x       y       z     vdW  Elec       q    Type
REMARK                         _______ _______ _______ _____ _____    ______ ____
ROOT
ATOM     13  N   UNL     1       0.794  -0.876   0.000  0.00  0.00    -0.309 N 
ATOM     14  H   UNL     1       1.198  -1.774   0.000  0.00  0.00    +0.149 HD
ATOM     15  C   UNL     1       1.561   0.412   0.000  0.00  0.00    +0.225 C 
ATOM     29  O   UNL     1       0.829   1.721   0.000  0.00  0.00    -0.275 OA
ENDROOT
BRANCH  13  12
ATOM      6  C   UNL     1      -3.627  -0.036   0.000  0.00  0.00    +0.080 C 
ATOM      7  C   UNL     1      -4.936  -0.769   0.000  0.00  0.00    +0.043 C 
ATOM      8  O   UNL     1      -3.133  -1.452   0.000  0.00  0.00    -0.365 OA
ATOM      9  C   UNL     1      -1.659  -1.732   0.000  0.00  0.00    +0.083 C 
ATOM     10  C   UNL     1      -2.191  -3.135   0.000  0.00  0.00    +0.043 C 
ATOM     11  C   UNL     1      -0.370  -2.500   0.000  0.00  0.00    +0.043 C 
ATOM     12  C   UNL     1      -0.680  -0.596   0.000  0.00  0.00    +0.104 C 
ATOM     30  C   UNL     1      -1.174   0.820   0.000  0.00  0.00    +0.028 C 
ATOM     31  C   UNL     1      -2.648   1.100   0.000  0.00  0.00    +0.038 C 
BRANCH   6   5
ATOM      5  C   UNL     1      -4.576   1.126   0.000  0.00  0.00    +0.119 C 
BRANCH   5   4
ATOM      1  C   UNL     1      -7.924  -0.837   0.000  0.00  0.00    +0.017 C 
ATOM      2  C   UNL     1      -8.418   0.579   0.000  0.00  0.00    +0.017 C 
ATOM      3  C   UNL     1      -7.224   1.487   0.000  0.00  0.00    +0.084 C 
ATOM      4  N   UNL     1      -5.992   0.631   0.000  0.00  0.00    -0.300 NA
ATOM     32  C   UNL     1      -6.425  -0.805   0.000  0.00  0.00    +0.084 C 
ENDBRANCH   5   4
ENDBRANCH   6   5
ENDBRANCH  13  12
BRANCH  15  16
ATOM     16  C   UNL     1       3.061   0.393   0.000  0.00  0.00    +0.135 C 
BRANCH  16  17
ATOM     17  C   UNL     1       3.828   1.682   0.000  0.00  0.00    -0.031 A 
ATOM     18  C   UNL     1       5.328   1.662   0.000  0.00  0.00    +0.005 A 
ATOM     19  C   UNL     1       6.095   2.950   0.000  0.00  0.00    +0.000 A 
ATOM     20  C   UNL     1       5.363   4.259   0.000  0.00  0.00    +0.000 A 
ATOM     21  C   UNL     1       3.863   4.279   0.000  0.00  0.00    +0.000 A 
ATOM     22  C   UNL     1       3.096   2.990   0.000  0.00  0.00    +0.005 A 
ENDBRANCH  16  17
BRANCH  16  23
ATOM     23  C   UNL     1       3.794  -0.916   0.000  0.00  0.00    -0.031 A 
ATOM     24  C   UNL     1       3.027  -2.205   0.000  0.00  0.00    +0.005 A 
ATOM     25  C   UNL     1       3.759  -3.514   0.000  0.00  0.00    +0.000 A 
ATOM     26  C   UNL     1       5.259  -3.534   0.000  0.00  0.00    +0.000 A 
ATOM     27  C   UNL     1       6.026  -2.245   0.000  0.00  0.00    +0.000 A 
ATOM     28  C   UNL     1       5.294  -0.936   0.000  0.00  0.00    +0.005 A 
ENDBRANCH  16  23
ENDBRANCH  15  16
TORSDOF 6