REMARK  Name = 4135
REMARK  2 active torsions:
REMARK  status: ('A' for Active; 'I' for Inactive)
REMARK    1  A    between atoms: C_3  and  C_5
REMARK    2  A    between atoms: C_7  and  N_13
REMARK                            x       y       z     vdW  Elec       q    Type
REMARK                         _______ _______ _______ _____ _____    ______ ____
ROOT
ATOM      6  C   UNL     1      -6.077   0.758   0.000  0.00  0.00    +0.101 A 
ATOM      7  C   UNL     1      -5.920  -0.733   0.000  0.00  0.00    +0.136 A 
ATOM      8  C   UNL     1      -4.453  -1.045   0.000  0.00  0.00    +0.364 A 
ATOM     12  N   UNL     1      -3.703   0.254   0.000  0.00  0.00    -0.217 N 
ATOM     13  H   UNL     1      -2.211   0.411   0.000  0.00  0.00    +0.195 HD
ATOM     14  N   UNL     1      -4.707   1.369   0.000  0.00  0.00    -0.168 NA
ENDROOT
BRANCH   6   2
ATOM      1  C   UNL     1      -7.376   3.008   0.000  0.00  0.00    +0.120 A 
ATOM      2  C   UNL     1      -7.376   1.508   0.000  0.00  0.00    +0.020 A 
ATOM      3  C   UNL     1      -8.675   0.758   0.000  0.00  0.00    +0.013 A 
ATOM      4  C   UNL     1      -9.974   1.508   0.000  0.00  0.00    +0.020 A 
ATOM      5  C   UNL     1      -9.974   3.008   0.000  0.00  0.00    +0.111 A 
ATOM     15  N   UNL     1      -8.675   3.758   0.000  0.00  0.00    -0.263 NA
ENDBRANCH   6   2
BRANCH   8   9
ATOM      9  N   UNL     1      -3.843  -2.416   0.000  0.00  0.00    +0.100 N 
ATOM     10  O   UNL     1      -4.725  -3.629   0.000  0.00  0.00    +0.043 OA
ATOM     11  O   UNL     1      -2.351  -2.572   0.000  0.00  0.00    -0.575 OA
ENDBRANCH   8   9
TORSDOF 2