REMARK  Name = 25740
REMARK  7 active torsions:
REMARK  status: ('A' for Active; 'I' for Inactive)
REMARK    1  A    between atoms: N_5  and  C1*_11
REMARK    2  A    between atoms: C_10  and  S_15
REMARK    3  A    between atoms: C2*_12  and  O2*_20
REMARK    4  A    between atoms: C3*_13  and  O3*_19
REMARK    5  A    between atoms: C4*_14  and  C5*_18
REMARK    6  A    between atoms: S_15  and  C_16
REMARK    7  A    between atoms: O5*_17  and  C5*_18
REMARK                            x       y       z     vdW  Elec       q    Type
REMARK                         _______ _______ _______ _____ _____    ______ ____
ROOT
ATOM     11  C1* UNL     1       9.174   0.226   0.000  0.00  0.00    +0.253 C 
ATOM     12  C2* UNL     1      10.601  -0.238   0.000  0.00  0.00    +0.195 C 
ATOM     15  C3* UNL     1      10.601  -1.738   0.000  0.00  0.00    +0.178 C 
ATOM     18  C4* UNL     1       9.174  -2.201   0.000  0.00  0.00    +0.177 C 
ATOM     22  O4* UNL     1       8.292  -0.988   0.000  0.00  0.00    -0.346 OA
ENDROOT
BRANCH  11  10
ATOM      1  N   UNL     1       4.686   3.616   0.000  0.00  0.00    -0.228 NA
ATOM      2  C   UNL     1       4.686   2.116   0.000  0.00  0.00    +0.190 A 
ATOM      5  N   UNL     1       5.985   1.366   0.000  0.00  0.00    -0.202 NA
ATOM      6  C   UNL     1       7.284   2.116   0.000  0.00  0.00    +0.167 A 
ATOM      7  C   UNL     1       7.284   3.616   0.000  0.00  0.00    +0.126 A 
ATOM      8  N   UNL     1       8.710   4.080   0.000  0.00  0.00    -0.232 NA
ATOM      9  C   UNL     1       9.592   2.866   0.000  0.00  0.00    +0.203 A 
ATOM     10  N   UNL     1       8.710   1.653   0.000  0.00  0.00    -0.286 N 
ATOM     23  C   UNL     1       5.985   4.366   0.000  0.00  0.00    +0.145 A 
BRANCH   2   3
ATOM      3  S   UNL     1       3.387   1.366   0.000  0.00  0.00    -0.089 S 
ATOM      4  C   UNL     1       2.088   2.116   0.000  0.00  0.00    +0.093 C 
ENDBRANCH   2   3
ENDBRANCH  11  10
BRANCH  12  13
ATOM     13  O2* UNL     1      11.814   0.644   0.000  0.00  0.00    -0.385 OA
ATOM     14  H2* UNL     1      12.700   0.250   0.000  0.00  0.00    +0.210 HD
ENDBRANCH  12  13
BRANCH  15  16
ATOM     16  O3* UNL     1      11.814  -2.619   0.000  0.00  0.00    -0.386 OA
ATOM     17  H3* UNL     1      11.713  -3.584   0.000  0.00  0.00    +0.210 HD
ENDBRANCH  15  16
BRANCH  18  19
ATOM     19  C5* UNL     1       8.710  -3.628   0.000  0.00  0.00    +0.190 C 
BRANCH  19  20
ATOM     20  O5* UNL     1       9.714  -4.742   0.000  0.00  0.00    -0.392 OA
ATOM     21  H5* UNL     1       9.414  -5.665   0.000  0.00  0.00    +0.210 HD
ENDBRANCH  19  20
ENDBRANCH  18  19
TORSDOF 6