REMARK  Name = 349156
REMARK  5 active torsions:
REMARK  status: ('A' for Active; 'I' for Inactive)
REMARK    1  A    between atoms: C_5  and  O_23
REMARK    2  A    between atoms: C_6  and  O_21
REMARK    3  A    between atoms: C_7  and  O_25
REMARK    4  A    between atoms: C_9  and  O_24
REMARK    5  A    between atoms: C_18  and  O_20
REMARK                            x       y       z     vdW  Elec       q    Type
REMARK                         _______ _______ _______ _____ _____    ______ ____
ROOT
ATOM      1  O   UNL     1       1.420   4.837   0.000  0.00  0.00    -0.449 OA
ATOM      2  C   UNL     1       1.420   6.337   0.000  0.00  0.00    +0.467 C 
ATOM      3  O   UNL     1       2.847   6.801   0.000  0.00  0.00    -0.452 OA
ATOM      4  C   UNL     1       3.728   5.587   0.000  0.00  0.00    +0.170 A 
ATOM      5  C   UNL     1       5.220   5.430   0.000  0.00  0.00    +0.054 A 
ATOM      6  C   UNL     1       5.830   4.060   0.000  0.00  0.00    -0.021 A 
ATOM      7  C   UNL     1       4.949   2.846   0.000  0.00  0.00    +0.085 A 
ATOM      8  C   UNL     1       5.559   1.476   0.000  0.00  0.00    +0.248 C 
ATOM      9  N   UNL     1       7.051   1.319   0.000  0.00  0.00    -0.305 N 
ATOM     10  H   UNL     1       7.451   0.420   0.000  0.00  0.00    +0.149 HD
ATOM     11  C   UNL     1       7.932   2.533   0.000  0.00  0.00    +0.114 C 
ATOM     12  C   UNL     1       9.424   2.376   0.000  0.00  0.00    +0.166 C 
ATOM     15  C   UNL     1      10.306   3.590   0.000  0.00  0.00    +0.176 C 
ATOM     18  C   UNL     1       9.695   4.960   0.000  0.00  0.00    +0.175 C 
ATOM     21  C   UNL     1       8.204   5.117   0.000  0.00  0.00    +0.155 C 
ATOM     24  O   UNL     1       4.677   0.263   0.000  0.00  0.00    -0.270 OA
ATOM     25  C   UNL     1       3.457   3.003   0.000  0.00  0.00    +0.175 A 
ATOM     28  C   UNL     1       7.322   3.903   0.000  0.00  0.00    +0.074 C 
ATOM     29  C   UNL     1       2.847   4.373   0.000  0.00  0.00    +0.208 A 
ENDROOT
BRANCH  12  13
ATOM     13  O   UNL     1      10.034   1.006   0.000  0.00  0.00    -0.387 OA
ATOM     14  H   UNL     1       9.464   0.221   0.000  0.00  0.00    +0.210 HD
ENDBRANCH  12  13
BRANCH  15  16
ATOM     16  O   UNL     1      11.797   3.433   0.000  0.00  0.00    -0.387 OA
ATOM     17  H   UNL     1      12.192   2.547   0.000  0.00  0.00    +0.210 HD
ENDBRANCH  15  16
BRANCH  18  19
ATOM     19  O   UNL     1      10.577   6.173   0.000  0.00  0.00    -0.387 OA
ATOM     20  H   UNL     1      11.542   6.072   0.000  0.00  0.00    +0.210 HD
ENDBRANCH  18  19
BRANCH  21  22
ATOM     22  O   UNL     1       7.594   6.487   0.000  0.00  0.00    -0.388 OA
ATOM     23  H   UNL     1       8.164   7.272   0.000  0.00  0.00    +0.210 HD
ENDBRANCH  21  22
BRANCH  25  26
ATOM     26  O   UNL     1       2.575   1.790   0.000  0.00  0.00    -0.503 OA
ATOM     27  H   UNL     1       1.643   1.888   0.000  0.00  0.00    +0.292 HD
ENDBRANCH  25  26
TORSDOF 5