REMARK  Name = 375997
REMARK  3 active torsions:
REMARK  status: ('A' for Active; 'I' for Inactive)
REMARK    1  A    between atoms: C_1  and  O_10
REMARK    2  A    between atoms: C_3  and  C_11
REMARK    3  A    between atoms: N_9  and  C_13
REMARK                            x       y       z     vdW  Elec       q    Type
REMARK                         _______ _______ _______ _____ _____    ______ ____
ROOT
ATOM      1  C   UNL     1       1.022   3.486   0.000  0.00  0.00    +0.154 A 
ATOM      4  C   UNL     1       1.485   2.060   0.000  0.00  0.00    +0.161 A 
ATOM      5  N   UNL     1       2.953   1.748   0.000  0.00  0.00    -0.215 NA
ATOM      6  C   UNL     1       3.956   2.863   0.000  0.00  0.00    +0.256 A 
ATOM      7  N   UNL     1       5.456   2.863   0.000  0.00  0.00    -0.124 NA
ATOM      8  N   UNL     1       5.920   4.289   0.000  0.00  0.00    -0.196 N 
ATOM     15  C   UNL     1       4.706   5.171   0.000  0.00  0.00    +0.232 A 
ATOM     16  N   UNL     1       4.706   6.671   0.000  0.00  0.00    -0.266 NA
ATOM     17  H   UNL     1       5.559   7.163   0.000  0.00  0.00    +0.190 HD
ATOM     18  N   UNL     1       3.493   4.289   0.000  0.00  0.00    -0.247 N 
ATOM     19  C   UNL     1       2.025   4.601   0.000  0.00  0.00    +0.070 A 
ATOM     20  C   UNL     1       1.562   6.028   0.000  0.00  0.00    +0.068 C 
ENDROOT
BRANCH   8   9
ATOM      9  C   UNL     1       7.346   4.753   0.000  0.00  0.00    +0.069 A 
ATOM     10  C   UNL     1       8.461   3.749   0.000  0.00  0.00    +0.028 A 
ATOM     11  C   UNL     1       9.888   4.213   0.000  0.00  0.00    +0.002 A 
ATOM     12  C   UNL     1      10.199   5.680   0.000  0.00  0.00    +0.000 A 
ATOM     13  C   UNL     1       9.085   6.684   0.000  0.00  0.00    +0.002 A 
ATOM     14  C   UNL     1       7.658   6.220   0.000  0.00  0.00    +0.028 A 
ENDBRANCH   8   9
BRANCH   1   2
ATOM      2  O   UNL     1      -0.446   3.798   0.000  0.00  0.00    -0.504 OA
ATOM      3  H   UNL     1      -0.735   4.689   0.000  0.00  0.00    +0.292 HD
ENDBRANCH   1   2
TORSDOF 2