REMARK  Name = 308814
REMARK  1 active torsions:
REMARK  status: ('A' for Active; 'I' for Inactive)
REMARK    1  A    between atoms: C_4  and  C_22
REMARK                            x       y       z     vdW  Elec       q    Type
REMARK                         _______ _______ _______ _____ _____    ______ ____
ROOT
ATOM      6  C   UNL     1       0.129  -5.776   0.000  0.00  0.00    +0.018 C 
ATOM      7  C   UNL     1       0.129  -7.276   0.000  0.00  0.00    -0.009 C 
ATOM      8  C   UNL     1      -1.170  -8.026   0.000  0.00  0.00    -0.006 A 
ATOM      9  C   UNL     1      -1.170  -9.526   0.000  0.00  0.00    +0.030 A 
ATOM     10  C   UNL     1      -2.469 -10.276   0.000  0.00  0.00    +0.012 A 
ATOM     11  C   UNL     1      -3.768  -9.526   0.000  0.00  0.00    +0.001 A 
ATOM     12  C   UNL     1      -3.768  -8.026   0.000  0.00  0.00    +0.001 A 
ATOM     13  C   UNL     1       0.130 -10.276   0.000  0.00  0.00    +0.194 C 
ATOM     14  O   UNL     1       0.130 -11.776   0.000  0.00  0.00    -0.287 OA
ATOM     15  C   UNL     1       1.429  -9.526   0.000  0.00  0.00    +0.030 A 
ATOM     16  C   UNL     1       2.728 -10.276   0.000  0.00  0.00    +0.012 A 
ATOM     17  C   UNL     1       4.027  -9.526   0.000  0.00  0.00    +0.001 A 
ATOM     18  C   UNL     1       4.027  -8.026   0.000  0.00  0.00    +0.001 A 
ATOM     19  C   UNL     1       2.728  -7.276   0.000  0.00  0.00    +0.009 A 
ATOM     20  C   UNL     1      -2.469  -7.276   0.000  0.00  0.00    +0.009 A 
ATOM     21  C   UNL     1       1.429  -8.026   0.000  0.00  0.00    -0.006 A 
ENDROOT
BRANCH   6   5
ATOM      1  C   UNL     1       2.728  -2.776   0.000  0.00  0.00    +0.020 A 
ATOM      2  C   UNL     1       4.027  -3.526   0.000  0.00  0.00    +0.111 A 
ATOM      3  N   UNL     1       4.027  -5.026   0.000  0.00  0.00    -0.263 NA
ATOM      4  C   UNL     1       2.728  -5.776   0.000  0.00  0.00    +0.118 A 
ATOM      5  C   UNL     1       1.429  -5.026   0.000  0.00  0.00    -0.006 A 
ATOM     22  C   UNL     1       1.429  -3.526   0.000  0.00  0.00    +0.011 A 
ENDBRANCH   6   5
TORSDOF 1