REMARK  Name = 216183
REMARK  4 active torsions:
REMARK  status: ('A' for Active; 'I' for Inactive)
REMARK    1  A    between atoms: C_2  and  C_14
REMARK    2  A    between atoms: C_3  and  N_18
REMARK    3  A    between atoms: C_7  and  N_15
REMARK    4  A    between atoms: C_9  and  N_21
REMARK                            x       y       z     vdW  Elec       q    Type
REMARK                         _______ _______ _______ _____ _____    ______ ____
ROOT
ATOM      7  N   UNL     1       0.275  -7.024   0.000  0.00  0.00    -0.269 N 
ATOM      8  H   UNL     1       1.127  -7.517   0.000  0.00  0.00    +0.156 HD
ATOM      9  C   UNL     1      -1.025  -7.774   0.000  0.00  0.00    +0.308 C 
ATOM     10  O   UNL     1      -2.324  -7.024   0.000  0.00  0.00    -0.252 OA
ATOM     11  N   UNL     1      -1.025  -9.274   0.000  0.00  0.00    -0.269 N 
ATOM     12  H   UNL     1      -0.172  -9.767   0.000  0.00  0.00    +0.156 HD
ENDROOT
BRANCH   7   6
ATOM      1  F   UNL     1       2.873  -2.525   0.000  0.00  0.00    -0.205 F 
ATOM      2  C   UNL     1       1.574  -3.275   0.000  0.00  0.00    +0.125 A 
ATOM      3  C   UNL     1       0.275  -2.525   0.000  0.00  0.00    +0.038 A 
ATOM      4  C   UNL     1      -1.025  -3.275   0.000  0.00  0.00    +0.005 A 
ATOM      5  C   UNL     1      -1.025  -4.774   0.000  0.00  0.00    +0.023 A 
ATOM      6  C   UNL     1       0.275  -5.524   0.000  0.00  0.00    +0.037 A 
ATOM     23  C   UNL     1       1.574  -4.774   0.000  0.00  0.00    +0.061 A 
ENDBRANCH   7   6
BRANCH  11  13
ATOM     13  C   UNL     1      -2.324 -10.025   0.000  0.00  0.00    +0.044 A 
ATOM     14  C   UNL     1      -2.324 -11.525   0.000  0.00  0.00    +0.107 A 
ATOM     15  C   UNL     1      -3.623 -12.275   0.000  0.00  0.00    +0.275 A 
ATOM     19  C   UNL     1      -4.922 -11.525   0.000  0.00  0.00    +0.084 A 
ATOM     20  C   UNL     1      -4.922 -10.025   0.000  0.00  0.00    +0.012 A 
ATOM     21  C   UNL     1      -3.623  -9.274   0.000  0.00  0.00    -0.029 A 
ATOM     22  C   UNL     1      -3.623  -7.774   0.000  0.00  0.00    +0.045 C 
BRANCH  15  16
ATOM     16  N   UNL     1      -3.623 -13.775   0.000  0.00  0.00    +0.080 N 
ATOM     17  O   UNL     1      -2.324 -14.525   0.000  0.00  0.00    +0.041 OA
ATOM     18  O   UNL     1      -4.922 -14.525   0.000  0.00  0.00    -0.576 OA
ENDBRANCH  15  16
ENDBRANCH  11  13
TORSDOF 3