REMARK  Name = 372221
REMARK  4 active torsions:
REMARK  status: ('A' for Active; 'I' for Inactive)
REMARK    1  A    between atoms: C_4  and  C_14
REMARK    2  A    between atoms: C_5  and  C_15
REMARK    3  A    between atoms: C_6  and  N_7
REMARK    4  A    between atoms: N_16  and  C_17
REMARK                            x       y       z     vdW  Elec       q    Type
REMARK                         _______ _______ _______ _____ _____    ______ ____
ROOT
ATOM      6  N   UNL     1       5.250   3.348   0.000  0.00  0.00    -0.251 N 
ATOM      7  C   UNL     1       6.000   2.049   0.000  0.00  0.00    +0.212 A 
ATOM      8  N   UNL     1       7.500   2.049   0.000  0.00  0.00    -0.204 NA
ATOM      9  C   UNL     1       8.250   3.348   0.000  0.00  0.00    +0.221 A 
ATOM     10  N   UNL     1       9.750   3.348   0.000  0.00  0.00    -0.316 N 
ATOM     11  H   UNL     1      10.242   2.495   0.000  0.00  0.00    +0.149 HD
ATOM     12  C   UNL     1      10.500   4.647   0.000  0.00  0.00    +0.128 C 
ATOM     13  N   UNL     1       7.500   4.647   0.000  0.00  0.00    -0.159 NA
ATOM     14  C   UNL     1       6.000   4.647   0.000  0.00  0.00    +0.357 A 
ATOM     15  O   UNL     1       5.250   5.946   0.000  0.00  0.00    -0.244 OA
ENDROOT
BRANCH   6   5
ATOM      1  C   UNL     1       0.750   3.348   0.000  0.00  0.00    +0.001 A 
ATOM      2  C   UNL     1       1.500   2.049   0.000  0.00  0.00    +0.005 A 
ATOM      3  C   UNL     1       3.000   2.049   0.000  0.00  0.00    -0.026 A 
ATOM      4  C   UNL     1       3.750   0.750   0.000  0.00  0.00    +0.046 C 
ATOM      5  C   UNL     1       3.750   3.348   0.000  0.00  0.00    +0.058 A 
ATOM     16  C   UNL     1       3.000   4.647   0.000  0.00  0.00    -0.026 A 
ATOM     17  C   UNL     1       3.750   5.946   0.000  0.00  0.00    +0.046 C 
ATOM     18  C   UNL     1       1.500   4.647   0.000  0.00  0.00    +0.005 A 
ENDBRANCH   6   5
TORSDOF 1