REMARK  Name = 215684
REMARK  8 active torsions:
REMARK  status: ('A' for Active; 'I' for Inactive)
REMARK    1  A    between atoms: O_1  and  C_9
REMARK    2  A    between atoms: O_1  and  C_20
REMARK    3  A    between atoms: C_4  and  N_17
REMARK    4  A    between atoms: C_5  and  N_14
REMARK    5  A    between atoms: C_6  and  O_18
REMARK    6  A    between atoms: C_12  and  O_22
REMARK    7  A    between atoms: O_18  and  C_19
REMARK    8  A    between atoms: O_22  and  C_23
REMARK                            x       y       z     vdW  Elec       q    Type
REMARK                         _______ _______ _______ _____ _____    ______ ____
ROOT
ATOM      2  C   UNL     1       7.520  -5.524   0.000  0.00  0.00    +0.410 C 
ATOM      3  O   UNL     1       8.819  -4.774   0.000  0.00  0.00    -0.226 OA
ATOM      4  N   UNL     1       6.221  -4.774   0.000  0.00  0.00    -0.247 N 
ATOM      5  H   UNL     1       5.368  -5.267   0.000  0.00  0.00    +0.158 HD
ENDROOT
BRANCH   4   6
ATOM      6  C   UNL     1       6.221  -3.275   0.000  0.00  0.00    +0.079 A 
ATOM      7  C   UNL     1       4.922  -2.525   0.000  0.00  0.00    +0.148 A 
ATOM     10  C   UNL     1       4.922  -1.025   0.000  0.00  0.00    +0.131 A 
ATOM     11  C   UNL     1       6.221  -0.275   0.000  0.00  0.00    +0.277 A 
ATOM     15  C   UNL     1       7.520  -1.025   0.000  0.00  0.00    +0.086 A 
ATOM     16  C   UNL     1       7.520  -2.525   0.000  0.00  0.00    +0.034 A 
BRANCH  11  12
ATOM     12  N   UNL     1       6.221   1.226   0.000  0.00  0.00    +0.080 N 
ATOM     13  O   UNL     1       4.922   1.976   0.000  0.00  0.00    +0.041 OA
ATOM     14  O   UNL     1       7.520   1.976   0.000  0.00  0.00    -0.576 OA
ENDBRANCH  11  12
BRANCH   7   8
ATOM      8  O   UNL     1       3.623  -3.275   0.000  0.00  0.00    -0.493 OA
ATOM      9  C   UNL     1       3.623  -4.774   0.000  0.00  0.00    +0.277 C 
ENDBRANCH   7   8
ENDBRANCH   4   6
BRANCH   2   1
ATOM      1  O   UNL     1       7.520  -7.024   0.000  0.00  0.00    -0.411 OA
BRANCH   1  17
ATOM     17  C   UNL     1       8.819  -7.774   0.000  0.00  0.00    +0.133 A 
ATOM     18  C   UNL     1       8.819  -9.274   0.000  0.00  0.00    +0.050 A 
ATOM     19  C   UNL     1      10.118 -10.025   0.000  0.00  0.00    +0.049 A 
ATOM     20  C   UNL     1      11.417  -9.274   0.000  0.00  0.00    +0.120 A 
ATOM     23  C   UNL     1      11.417  -7.774   0.000  0.00  0.00    +0.049 A 
ATOM     24  C   UNL     1      10.118  -7.024   0.000  0.00  0.00    +0.050 A 
BRANCH  20  21
ATOM     21  O   UNL     1      12.716 -10.025   0.000  0.00  0.00    -0.495 OA
ATOM     22  C   UNL     1      14.015  -9.274   0.000  0.00  0.00    +0.277 C 
ENDBRANCH  20  21
ENDBRANCH   1  17
ENDBRANCH   2   1
TORSDOF 6