REMARK  Name = 24113
REMARK  6 active torsions:
REMARK  status: ('A' for Active; 'I' for Inactive)
REMARK    1  A    between atoms: N_2  and  C_20
REMARK    2  A    between atoms: C_20  and  C_21
REMARK    3  A    between atoms: C_21  and  C_22
REMARK    4  A    between atoms: C_22  and  N_23
REMARK    5  A    between atoms: N_23  and  C_24
REMARK    6  A    between atoms: N_23  and  C_25
REMARK                            x       y       z     vdW  Elec       q    Type
REMARK                         _______ _______ _______ _____ _____    ______ ____
ROOT
ATOM      1 CL   UNL     1      -6.770  -9.274   0.000  0.00  0.00    -0.082 Cl
ATOM      2  C   UNL     1      -6.770  -7.774   0.000  0.00  0.00    +0.063 A 
ATOM      3  C   UNL     1      -8.069  -7.024   0.000  0.00  0.00    +0.022 A 
ATOM      4  C   UNL     1      -8.069  -5.524   0.000  0.00  0.00    +0.003 A 
ATOM      5  C   UNL     1      -6.770  -4.774   0.000  0.00  0.00    +0.017 A 
ATOM      6  C   UNL     1      -5.471  -5.524   0.000  0.00  0.00    +0.036 A 
ATOM      7  S   UNL     1      -4.172  -4.774   0.000  0.00  0.00    -0.085 S 
ATOM      8  C   UNL     1      -2.873  -5.524   0.000  0.00  0.00    +0.042 A 
ATOM      9  C   UNL     1      -2.873  -7.024   0.000  0.00  0.00    +0.049 A 
ATOM     10  C   UNL     1      -1.573  -7.774   0.000  0.00  0.00    +0.025 A 
ATOM     11  C   UNL     1      -0.275  -7.024   0.000  0.00  0.00    +0.010 A 
ATOM     12  C   UNL     1      -0.275  -5.524   0.000  0.00  0.00    -0.017 A 
ATOM     13  C   UNL     1       1.025  -4.774   0.000  0.00  0.00    +0.008 A 
ATOM     14  C   UNL     1       1.025  -3.275   0.000  0.00  0.00    +0.001 A 
ATOM     15  C   UNL     1      -0.275  -2.525   0.000  0.00  0.00    +0.001 A 
ATOM     16  C   UNL     1      -1.574  -3.275   0.000  0.00  0.00    +0.009 A 
ATOM     17  N   UNL     1      -4.172  -7.774   0.000  0.00  0.00    -0.297 N 
ATOM     24  C   UNL     1      -1.574  -4.774   0.000  0.00  0.00    -0.002 A 
ATOM     25  C   UNL     1      -5.471  -7.024   0.000  0.00  0.00    +0.066 A 
ENDROOT
BRANCH  17  18
ATOM     18  C   UNL     1      -4.172  -9.274   0.000  0.00  0.00    +0.112 C 
BRANCH  18  19
ATOM     19  C   UNL     1      -2.873 -10.025   0.000  0.00  0.00    +0.035 C 
BRANCH  19  20
ATOM     20  C   UNL     1      -1.574  -9.274   0.000  0.00  0.00    +0.085 C 
BRANCH  20  21
ATOM     21  N   UNL     1      -0.275 -10.025   0.000  0.00  0.00    -0.308 NA
ATOM     22  C   UNL     1      -0.275 -11.525   0.000  0.00  0.00    +0.104 C 
ATOM     23  C   UNL     1       1.025  -9.274   0.000  0.00  0.00    +0.104 C 
ENDBRANCH  20  21
ENDBRANCH  19  20
ENDBRANCH  18  19
ENDBRANCH  17  18
TORSDOF 4