REMARK  Name = 335649
REMARK  1 active torsions:
REMARK  status: ('A' for Active; 'I' for Inactive)
REMARK    1  A    between atoms: C_10  and  C_13
REMARK                            x       y       z     vdW  Elec       q    Type
REMARK                         _______ _______ _______ _____ _____    ______ ____
ROOT
ATOM      1  C   UNL     1       2.250   3.750   0.000  0.00  0.00    +0.234 A 
ATOM      2  N   UNL     1       0.750   3.750   0.000  0.00  0.00    -0.326 N 
ATOM      3  H   UNL     1       0.258   2.897   0.000  0.00  0.00    +0.145 HD
ATOM      4  H   UNL     1       0.258   4.603   0.000  0.00  0.00    +0.145 HD
ATOM      5  N   UNL     1       3.132   2.537   0.000  0.00  0.00    -0.125 NA
ATOM      6  N   UNL     1       4.558   3.000   0.000  0.00  0.00    -0.157 N 
ATOM      7  C   UNL     1       5.857   2.250   0.000  0.00  0.00    +0.297 A 
ATOM      8  O   UNL     1       5.857   0.750   0.000  0.00  0.00    -0.264 OA
ATOM      9  C   UNL     1       7.156   3.000   0.000  0.00  0.00    +0.124 A 
ATOM     10  C   UNL     1       8.455   2.250   0.000  0.00  0.00    +0.073 C 
ATOM     11  N   UNL     1       7.156   4.500   0.000  0.00  0.00    -0.171 NA
ATOM     12  N   UNL     1       5.857   5.250   0.000  0.00  0.00    -0.244 N 
ATOM     13  H   UNL     1       5.857   6.750   0.000  0.00  0.00    +0.192 HD
ATOM     14  C   UNL     1       4.558   4.500   0.000  0.00  0.00    +0.252 A 
ATOM     15  N   UNL     1       3.132   4.963   0.000  0.00  0.00    -0.177 NA
ENDROOT
TORSDOF 0