REMARK  Name = 26113
REMARK  2 active torsions:
REMARK  status: ('A' for Active; 'I' for Inactive)
REMARK    1  A    between atoms: C_10  and  C_11
REMARK    2  A    between atoms: C_12  and  C_13
REMARK                            x       y       z     vdW  Elec       q    Type
REMARK                         _______ _______ _______ _____ _____    ______ ____
ROOT
ATOM      1  C   UNL     1      -0.991  -6.321   0.000  0.00  0.00    +0.080 C 
ATOM      2  C   UNL     1      -0.438  -4.926   0.000  0.00  0.00    +0.069 C 
ATOM      3  C   UNL     1      -1.592  -3.969   0.000  0.00  0.00    +0.015 C 
ATOM      4  C   UNL     1      -1.496  -2.472   0.000  0.00  0.00    +0.011 C 
ATOM     13  C   UNL     1      -2.860  -4.771   0.000  0.00  0.00    +0.069 C 
ATOM     14 CL   UNL     1      -4.253  -4.217   0.000  0.00  0.00    -0.081 Cl
ATOM     15 CL   UNL     1       1.016  -4.555   0.000  0.00  0.00    -0.081 Cl
ATOM     16  C   UNL     1      -2.488  -6.224   0.000  0.00  0.00    +0.080 C 
ATOM     17 CL   UNL     1      -3.446  -7.379   0.000  0.00  0.00    -0.080 Cl
ATOM     18 CL   UNL     1      -0.189  -7.588   0.000  0.00  0.00    -0.080 Cl
ENDROOT
BRANCH   4   5
ATOM      5  C   UNL     1      -0.152  -1.807   0.000  0.00  0.00    +0.001 C 
ATOM      6  C   UNL     1       1.097  -2.638   0.000  0.00  0.00    +0.008 C 
BRANCH   6   7
ATOM      7  C   UNL     1       2.441  -1.973   0.000  0.00  0.00    -0.025 A 
ATOM      8  C   UNL     1       3.689  -2.805   0.000  0.00  0.00    +0.008 A 
ATOM      9  C   UNL     1       5.034  -2.140   0.000  0.00  0.00    +0.001 A 
ATOM     10  C   UNL     1       5.130  -0.643   0.000  0.00  0.00    +0.000 A 
ATOM     11  C   UNL     1       3.882   0.189   0.000  0.00  0.00    +0.001 A 
ATOM     12  C   UNL     1       2.537  -0.476   0.000  0.00  0.00    +0.008 A 
ENDBRANCH   6   7
ENDBRANCH   4   5
TORSDOF 2