REMARK  Name = 21725
REMARK  0 active torsions:
REMARK  status: ('A' for Active; 'I' for Inactive)
REMARK                            x       y       z     vdW  Elec       q    Type
REMARK                         _______ _______ _______ _____ _____    ______ ____
ROOT
ATOM      1  C   UNL     1       3.348   3.549   0.000  0.00  0.00    +0.061 C 
ATOM      2  C   UNL     1       2.049   4.299   0.000  0.00  0.00    +0.019 C 
ATOM      3  C   UNL     1       0.750   3.549   0.000  0.00  0.00    +0.003 C 
ATOM      4  C   UNL     1       0.750   2.049   0.000  0.00  0.00    +0.015 C 
ATOM      5  C   UNL     1       2.049   1.299   0.000  0.00  0.00    +0.085 C 
ATOM      6  C   UNL     1       4.647   4.299   0.000  0.00  0.00    +0.027 C 
ATOM      7  C   UNL     1       5.946   5.049   0.000  0.00  0.00    +0.130 C 
ATOM      8  N   UNL     1       7.245   4.299   0.000  0.00  0.00    -0.312 N 
ATOM      9  C   UNL     1       7.245   2.799   0.000  0.00  0.00    +0.026 A 
ATOM     10  C   UNL     1       5.946   2.049   0.000  0.00  0.00    +0.050 C 
ATOM     11  C   UNL     1       4.647   1.299   0.000  0.00  0.00    +0.094 C 
ATOM     12  C   UNL     1       8.544   2.049   0.000  0.00  0.00    +0.022 A 
ATOM     13  C   UNL     1       9.843   2.799   0.000  0.00  0.00    +0.007 A 
ATOM     14  C   UNL     1       9.843   4.299   0.000  0.00  0.00    +0.070 A 
ATOM     15  C   UNL     1       8.544   5.049   0.000  0.00  0.00    +0.251 A 
ATOM     16  O   UNL     1       8.544   6.549   0.000  0.00  0.00    -0.268 OA
ATOM     17  C   UNL     1       4.647   2.799   0.000  0.00  0.00    +0.017 C 
ATOM     18  N   UNL     1       3.348   2.049   0.000  0.00  0.00    -0.298 NA
ENDROOT
TORSDOF 0