REMARK  Name = 215275
REMARK  4 active torsions:
REMARK  status: ('A' for Active; 'I' for Inactive)
REMARK    1  A    between atoms: C_3  and  C_19
REMARK    2  A    between atoms: C_4  and  N_18
REMARK    3  A    between atoms: C_7  and  N_21
REMARK    4  A    between atoms: C_12  and  N_18
REMARK                            x       y       z     vdW  Elec       q    Type
REMARK                         _______ _______ _______ _____ _____    ______ ____
ROOT
ATOM      1  S   UNL     1      -1.200   6.119   0.000  0.00  0.00    -0.150 S 
ATOM      2  C   UNL     1      -0.736   4.693   0.000  0.00  0.00    +0.120 C 
ATOM      3  C   UNL     1       0.764   4.693   0.000  0.00  0.00    +0.027 C 
ATOM     12  C   UNL     1       1.227   6.119   0.000  0.00  0.00    +0.042 C 
ATOM     23  C   UNL     1       0.014   7.001   0.000  0.00  0.00    +0.111 C 
ENDROOT
BRANCH  12  13
ATOM     13  C   UNL     1       2.654   6.583   0.000  0.00  0.00    +0.247 C 
ATOM     14  N   UNL     1       2.966   8.050   0.000  0.00  0.00    -0.282 N 
ATOM     15  H   UNL     1       2.234   8.709   0.000  0.00  0.00    +0.155 HD
ATOM     22  O   UNL     1       3.769   5.579   0.000  0.00  0.00    -0.270 OA
BRANCH  14  16
ATOM     16  C   UNL     1       4.393   8.514   0.000  0.00  0.00    +0.034 A 
ATOM     17  C   UNL     1       4.704   9.981   0.000  0.00  0.00    +0.023 A 
ATOM     18  C   UNL     1       6.131  10.444   0.000  0.00  0.00    +0.002 A 
ATOM     19  C   UNL     1       7.246   9.441   0.000  0.00  0.00    +0.000 A 
ATOM     20  C   UNL     1       6.934   7.973   0.000  0.00  0.00    +0.002 A 
ATOM     21  C   UNL     1       5.507   7.510   0.000  0.00  0.00    +0.023 A 
ENDBRANCH  14  16
ENDBRANCH  12  13
BRANCH   3   4
ATOM      4  N   UNL     1       1.646   3.479   0.000  0.00  0.00    -0.317 N 
ATOM      5  H   UNL     1       2.625   3.582   0.000  0.00  0.00    +0.152 HD
BRANCH   4   6
ATOM      6  C   UNL     1       1.036   2.109   0.000  0.00  0.00    +0.031 A 
ATOM      7  C   UNL     1       1.917   0.895   0.000  0.00  0.00    +0.023 A 
ATOM      8  C   UNL     1       1.307  -0.475   0.000  0.00  0.00    +0.002 A 
ATOM      9  C   UNL     1      -0.185  -0.632   0.000  0.00  0.00    +0.000 A 
ATOM     10  C   UNL     1      -1.066   0.582   0.000  0.00  0.00    +0.002 A 
ATOM     11  C   UNL     1      -0.456   1.952   0.000  0.00  0.00    +0.023 A 
ENDBRANCH   4   6
ENDBRANCH   3   4
TORSDOF 4