REMARK  Name = 329052
REMARK  6 active torsions:
REMARK  status: ('A' for Active; 'I' for Inactive)
REMARK    1  A    between atoms: C_5  and  C_19
REMARK    2  A    between atoms: C_6  and  C_8
REMARK    3  A    between atoms: N_10  and  N_21
REMARK    4  A    between atoms: N_10  and  C_22
REMARK    5  A    between atoms: C_13  and  N_23
REMARK    6  A    between atoms: C_19  and  N_20
REMARK                            x       y       z     vdW  Elec       q    Type
REMARK                         _______ _______ _______ _____ _____    ______ ____
ROOT
ATOM      9  C   UNL     1       6.426  -4.435   0.000  0.00  0.00    +0.315 C 
ATOM     10  N   UNL     1       5.676  -5.734   0.000  0.00  0.00    -0.223 N 
ATOM     11  H   UNL     1       4.692  -5.734   0.000  0.00  0.00    +0.174 HD
ATOM     24  O   UNL     1       7.926  -4.435   0.000  0.00  0.00    -0.264 OA
ENDROOT
BRANCH  10  12
ATOM     12  N   UNL     1       6.426  -7.033   0.000  0.00  0.00    -0.207 N 
ATOM     13  C   UNL     1       5.676  -8.332   0.000  0.00  0.00    +0.158 C 
ATOM     14  C   UNL     1       7.926  -7.033   0.000  0.00  0.00    +0.319 C 
ATOM     15  N   UNL     1       8.676  -8.332   0.000  0.00  0.00    -0.295 N 
ATOM     16  H   UNL     1       8.184  -9.184   0.000  0.00  0.00    +0.151 HD
ATOM     23  O   UNL     1       8.676  -5.734   0.000  0.00  0.00    -0.251 OA
BRANCH  15  17
ATOM     17  C   UNL     1      10.176  -8.332   0.000  0.00  0.00    +0.074 C 
ATOM     18  C   UNL     1      10.926  -9.631   0.000  0.00  0.00    +0.022 C 
ATOM     19  C   UNL     1      12.426  -9.631   0.000  0.00  0.00    +0.002 C 
ATOM     20  C   UNL     1      13.176  -8.332   0.000  0.00  0.00    +0.000 C 
ATOM     21  C   UNL     1      12.426  -7.033   0.000  0.00  0.00    +0.002 C 
ATOM     22  C   UNL     1      10.926  -7.033   0.000  0.00  0.00    +0.022 C 
ENDBRANCH  15  17
ENDBRANCH  10  12
BRANCH   9   8
ATOM      6  N   UNL     1       4.176  -3.136   0.000  0.00  0.00    -0.300 N 
ATOM      7  H   UNL     1       3.684  -3.988   0.000  0.00  0.00    +0.150 HD
ATOM      8  C   UNL     1       5.676  -3.136   0.000  0.00  0.00    +0.301 C 
ATOM     25  O   UNL     1       6.426  -1.837   0.000  0.00  0.00    -0.265 OA
BRANCH   6   5
ATOM      5  C   UNL     1       3.426  -1.837   0.000  0.00  0.00    +0.179 C 
BRANCH   5   4
ATOM      1  C   UNL     1       5.980   1.087   0.000  0.00  0.00    +0.041 A 
ATOM      2  C   UNL     1       4.681   1.837   0.000  0.00  0.00    +0.195 A 
ATOM      3  O   UNL     1       3.566   0.833   0.000  0.00  0.00    -0.466 OA
ATOM      4  C   UNL     1       4.176  -0.537   0.000  0.00  0.00    +0.122 A 
ATOM     26  C   UNL     1       5.668  -0.381   0.000  0.00  0.00    +0.046 A 
ENDBRANCH   5   4
ENDBRANCH   6   5
ENDBRANCH   9   8
TORSDOF 5