REMARK  Name = 302584
REMARK  4 active torsions:
REMARK  status: ('A' for Active; 'I' for Inactive)
REMARK    1  A    between atoms: C_5  and  S_11
REMARK    2  A    between atoms: C_6  and  S_11
REMARK    3  A    between atoms: C_7  and  N_14
REMARK    4  A    between atoms: C_9  and  N_17
REMARK                            x       y       z     vdW  Elec       q    Type
REMARK                         _______ _______ _______ _____ _____    ______ ____
ROOT
ATOM      7  C   UNL     1      -7.399  -0.924   0.000  0.00  0.00    +0.093 A 
ATOM      8  C   UNL     1      -8.899  -0.924   0.000  0.00  0.00    +0.293 A 
ATOM     12  C   UNL     1      -9.649   0.375   0.000  0.00  0.00    +0.169 A 
ATOM     13  C   UNL     1      -8.899   1.674   0.000  0.00  0.00    +0.280 A 
ATOM     17  C   UNL     1      -7.399   1.674   0.000  0.00  0.00    +0.086 A 
ATOM     18  C   UNL     1      -6.649   0.375   0.000  0.00  0.00    +0.028 A 
ENDROOT
BRANCH   8   9
ATOM      9  N   UNL     1      -9.649  -2.223   0.000  0.00  0.00    +0.081 N 
ATOM     10  O   UNL     1     -11.150  -2.223   0.000  0.00  0.00    +0.041 OA
ATOM     11  O   UNL     1      -8.899  -3.522   0.000  0.00  0.00    -0.576 OA
ENDBRANCH   8   9
BRANCH  13  14
ATOM     14  N   UNL     1      -9.649   2.973   0.000  0.00  0.00    +0.080 N 
ATOM     15  O   UNL     1     -11.150   2.973   0.000  0.00  0.00    +0.041 OA
ATOM     16  O   UNL     1      -8.899   4.272   0.000  0.00  0.00    -0.576 OA
ENDBRANCH  13  14
BRANCH   7   6
ATOM      6  S   UNL     1      -6.649  -2.223   0.000  0.00  0.00    -0.043 S 
BRANCH   6   5
ATOM      1  C   UNL     1      -2.900  -0.924   0.000  0.00  0.00    +0.115 A 
ATOM      2  C   UNL     1      -2.150  -2.223   0.000  0.00  0.00    +0.039 A 
ATOM      3  C   UNL     1      -2.900  -3.522   0.000  0.00  0.00    +0.115 A 
ATOM      4  N   UNL     1      -4.399  -3.522   0.000  0.00  0.00    -0.230 NA
ATOM      5  C   UNL     1      -5.149  -2.223   0.000  0.00  0.00    +0.193 A 
ATOM     19  N   UNL     1      -4.399  -0.924   0.000  0.00  0.00    -0.230 NA
ENDBRANCH   6   5
ENDBRANCH   7   6
TORSDOF 4