REMARK  Name = 33010
REMARK  4 active torsions:
REMARK  status: ('A' for Active; 'I' for Inactive)
REMARK    1  A    between atoms: C_5  and  C_8
REMARK    2  A    between atoms: C_6  and  C_16
REMARK    3  A    between atoms: C_16  and  C_17
REMARK    4  A    between atoms: C_16  and  C_18
REMARK                            x       y       z     vdW  Elec       q    Type
REMARK                         _______ _______ _______ _____ _____    ______ ____
ROOT
ATOM      1  S   UNL     1      -7.777   3.293   0.000  0.00  0.00    -0.067 S 
ATOM      2  C   UNL     1      -9.244   3.605   0.000  0.00  0.00    +0.040 A 
ATOM      3  C   UNL     1      -9.994   2.306   0.000  0.00  0.00    +0.079 A 
ATOM      4  C   UNL     1     -11.494   2.306   0.000  0.00  0.00    +0.029 A 
ATOM      5  C   UNL     1     -12.244   3.605   0.000  0.00  0.00    +0.002 A 
ATOM      6  C   UNL     1     -11.494   4.904   0.000  0.00  0.00    +0.001 A 
ATOM      7  N   UNL     1      -8.991   1.191   0.000  0.00  0.00    -0.239 NA
ATOM      8  C   UNL     1      -9.994   4.904   0.000  0.00  0.00    +0.017 A 
ATOM      9  C   UNL     1      -7.620   1.801   0.000  0.00  0.00    +0.109 A 
ENDROOT
BRANCH   9  10
ATOM     10  C   UNL     1      -6.321   1.051   0.000  0.00  0.00    +0.007 A 
ATOM     11  C   UNL     1      -6.321  -0.449   0.000  0.00  0.00    +0.011 A 
ATOM     12  C   UNL     1      -5.022  -1.199   0.000  0.00  0.00    +0.004 A 
ATOM     13  C   UNL     1      -3.723  -0.449   0.000  0.00  0.00    -0.045 A 
ATOM     17  C   UNL     1      -3.723   1.051   0.000  0.00  0.00    +0.004 A 
ATOM     18  C   UNL     1      -5.022   1.801   0.000  0.00  0.00    +0.011 A 
BRANCH  13  14
ATOM     14  C   UNL     1      -2.424  -1.199   0.000  0.00  0.00    +0.013 C 
ATOM     15  C   UNL     1      -2.424  -2.699   0.000  0.00  0.00    +0.012 C 
ATOM     16  C   UNL     1      -1.125  -0.449   0.000  0.00  0.00    +0.012 C 
ENDBRANCH  13  14
ENDBRANCH   9  10
TORSDOF 2