REMARK  Name = 35534
REMARK  2 active torsions:
REMARK  status: ('A' for Active; 'I' for Inactive)
REMARK    1  A    between atoms: C_11  and  C_12
REMARK    2  A    between atoms: N_13  and  O_14
REMARK                            x       y       z     vdW  Elec       q    Type
REMARK                         _______ _______ _______ _____ _____    ______ ____
ROOT
ATOM      1  O   UNL     1       2.324   2.525   0.000  0.00  0.00    -0.245 OA
ATOM      2  C   UNL     1       3.623   1.775   0.000  0.00  0.00    +0.350 A 
ATOM      3  N   UNL     1       4.922   2.525   0.000  0.00  0.00    -0.153 NA
ATOM      4  C   UNL     1       6.221   1.775   0.000  0.00  0.00    +0.285 A 
ATOM      5  C   UNL     1       6.221   0.275   0.000  0.00  0.00    +0.178 A 
ATOM      6  C   UNL     1       4.922  -0.475   0.000  0.00  0.00    +0.097 A 
ATOM     11  N   UNL     1       7.647  -0.189   0.000  0.00  0.00    -0.107 NA
ATOM     12  N   UNL     1       8.529   1.025   0.000  0.00  0.00    +0.036 NA
ATOM     13  O   UNL     1       7.647   2.238   0.000  0.00  0.00    -0.315 OA
ATOM     14  N   UNL     1       3.623   0.275   0.000  0.00  0.00    -0.303 N 
ATOM     15  H   UNL     1       2.324  -0.475   0.000  0.00  0.00    +0.171 HD
ENDROOT
BRANCH   6   7
ATOM      7  C   UNL     1       4.922  -1.976   0.000  0.00  0.00    +0.180 C 
ATOM      8  N   UNL     1       6.221  -2.725   0.000  0.00  0.00    -0.093 NA
BRANCH   8   9
ATOM      9  O   UNL     1       7.520  -1.976   0.000  0.00  0.00    -0.409 OA
ATOM     10  H   UNL     1       8.331  -2.444   0.000  0.00  0.00    +0.328 HD
ENDBRANCH   8   9
ENDBRANCH   6   7
TORSDOF 2