REMARK  Name = 295404
REMARK  1 active torsions:
REMARK  status: ('A' for Active; 'I' for Inactive)
REMARK    1  A    between atoms: C_1  and  C_11
REMARK                            x       y       z     vdW  Elec       q    Type
REMARK                         _______ _______ _______ _____ _____    ______ ____
ROOT
ATOM      1  C   UNL     1       5.688   0.517   0.000  0.00  0.00    +0.104 C 
ATOM      8  S   UNL     1       6.152  -0.909   0.000  0.00  0.00    -0.078 S 
ATOM      9  C   UNL     1       7.652  -0.909   0.000  0.00  0.00    +0.173 A 
ATOM     10  N   UNL     1       8.656  -2.024   0.000  0.00  0.00    -0.185 NA
ATOM     11  C   UNL     1      10.123  -1.712   0.000  0.00  0.00    +0.274 A 
ATOM     12  O   UNL     1      11.127  -2.827   0.000  0.00  0.00    -0.266 OA
ATOM     13  C   UNL     1      10.586  -0.285   0.000  0.00  0.00    +0.090 A 
ATOM     14  C   UNL     1       9.583   0.829   0.000  0.00  0.00    +0.093 A 
ATOM     15  N   UNL     1       8.115   0.518   0.000  0.00  0.00    -0.325 N 
ATOM     16  C   UNL     1       6.902   1.399   0.000  0.00  0.00    +0.143 C 
ENDROOT
BRANCH   1   2
ATOM      2  C   UNL     1       4.262   0.981   0.000  0.00  0.00    -0.032 A 
ATOM      3  C   UNL     1       3.950   2.448   0.000  0.00  0.00    +0.005 A 
ATOM      4  C   UNL     1       2.523   2.912   0.000  0.00  0.00    +0.000 A 
ATOM      5  C   UNL     1       1.409   1.908   0.000  0.00  0.00    +0.000 A 
ATOM      6  C   UNL     1       1.720   0.441   0.000  0.00  0.00    +0.000 A 
ATOM      7  C   UNL     1       3.147  -0.023   0.000  0.00  0.00    +0.005 A 
ENDBRANCH   1   2
TORSDOF 1