REMARK  Name = 217697
REMARK  8 active torsions:
REMARK  status: ('A' for Active; 'I' for Inactive)
REMARK    1  A    between atoms: C_1  and  C_23
REMARK    2  A    between atoms: C_1  and  C_24
REMARK    3  A    between atoms: C_6  and  C_28
REMARK    4  A    between atoms: C_6  and  C_29
REMARK    5  A    between atoms: C_8  and  C_27
REMARK    6  A    between atoms: C_12  and  C_26
REMARK    7  A    between atoms: C_16  and  C_25
REMARK    8  A    between atoms: C_21  and  C_26
REMARK                            x       y       z     vdW  Elec       q    Type
REMARK                         _______ _______ _______ _____ _____    ______ ____
ROOT
ATOM     10  C   UNL     1       8.722   2.250   0.000  0.00  0.00    +0.070 C 
ENDROOT
BRANCH  10   9
ATOM      1  C   UNL     1       2.227   4.500   0.000  0.00  0.00    +0.045 C 
ATOM      2  C   UNL     1       1.714   5.910   0.000  0.00  0.00    +0.036 C 
ATOM      3  C   UNL     1       0.750   4.239   0.000  0.00  0.00    +0.036 C 
ATOM      4  C   UNL     1       2.227   3.000   0.000  0.00  0.00    +0.002 C 
ATOM      5  C   UNL     1       3.526   2.250   0.000  0.00  0.00    -0.043 C 
ATOM      6  C   UNL     1       3.526   0.750   0.000  0.00  0.00    +0.044 C 
ATOM      7  C   UNL     1       4.825   3.000   0.000  0.00  0.00    -0.001 A 
ATOM      8  C   UNL     1       6.124   2.250   0.000  0.00  0.00    +0.014 A 
ATOM      9  C   UNL     1       7.423   3.000   0.000  0.00  0.00    -0.042 A 
ATOM     25  C   UNL     1       7.423   4.500   0.000  0.00  0.00    +0.006 A 
ATOM     26  C   UNL     1       6.124   5.250   0.000  0.00  0.00    +0.024 A 
ATOM     27  C   UNL     1       4.825   4.500   0.000  0.00  0.00    +0.035 A 
ATOM     28  N   UNL     1       3.526   5.250   0.000  0.00  0.00    -0.335 N 
ATOM     29  H   UNL     1       3.526   6.750   0.000  0.00  0.00    +0.147 HD
ENDBRANCH  10   9
BRANCH  10  11
ATOM     11  C   UNL     1      10.021   3.000   0.000  0.00  0.00    -0.042 A 
ATOM     12  C   UNL     1      11.320   2.250   0.000  0.00  0.00    +0.014 A 
ATOM     13  C   UNL     1      12.620   3.000   0.000  0.00  0.00    -0.001 A 
ATOM     14  C   UNL     1      12.620   4.500   0.000  0.00  0.00    +0.035 A 
ATOM     15  C   UNL     1      11.320   5.250   0.000  0.00  0.00    +0.024 A 
ATOM     16  N   UNL     1      13.919   5.250   0.000  0.00  0.00    -0.335 N 
ATOM     17  C   UNL     1      15.218   4.500   0.000  0.00  0.00    +0.045 C 
ATOM     18  C   UNL     1      16.695   4.239   0.000  0.00  0.00    +0.036 C 
ATOM     19  C   UNL     1      15.731   5.910   0.000  0.00  0.00    +0.036 C 
ATOM     20  C   UNL     1      15.218   3.000   0.000  0.00  0.00    +0.002 C 
ATOM     21  H   UNL     1      13.919   6.750   0.000  0.00  0.00    +0.147 HD
ATOM     22  C   UNL     1      13.919   2.250   0.000  0.00  0.00    -0.043 C 
ATOM     23  C   UNL     1      13.919   0.750   0.000  0.00  0.00    +0.044 C 
ATOM     24  C   UNL     1      10.021   4.500   0.000  0.00  0.00    +0.006 A 
ENDBRANCH  10  11
TORSDOF 2