REMARK  Name = 353451
REMARK  3 active torsions:
REMARK  status: ('A' for Active; 'I' for Inactive)
REMARK    1  A    between atoms: C_2  and  C_3
REMARK    2  A    between atoms: N_12  and  C_15
REMARK    3  A    between atoms: C_15  and  C_16
REMARK                            x       y       z     vdW  Elec       q    Type
REMARK                         _______ _______ _______ _____ _____    ______ ____
ROOT
ATOM      1  N   UNL     1      -2.677   0.895   0.000  0.00  0.00    -0.228 NA
ATOM      2  C   UNL     1      -2.286  -0.553   0.000  0.00  0.00    +0.171 A 
ATOM      8  C   UNL     1      -0.788  -0.629   0.000  0.00  0.00    +0.197 A 
ATOM      9  N   UNL     1       0.158  -1.793   0.000  0.00  0.00    -0.110 NA
ATOM     10  N   UNL     1       1.639  -1.556   0.000  0.00  0.00    -0.059 NA
ATOM     11  N   UNL     1       2.174  -0.155   0.000  0.00  0.00    -0.194 N 
ATOM     15  C   UNL     1       1.228   1.009   0.000  0.00  0.00    +0.354 A 
ATOM     16  O   UNL     1       1.764   2.410   0.000  0.00  0.00    -0.244 OA
ATOM     17  N   UNL     1      -0.253   0.772   0.000  0.00  0.00    -0.232 N 
ATOM     18  C   UNL     1      -1.420   1.714   0.000  0.00  0.00    +0.210 A 
ENDROOT
BRANCH   2   3
ATOM      3  C   UNL     1      -3.228  -1.720   0.000  0.00  0.00    +0.264 C 
ATOM      4  N   UNL     1      -4.710  -1.488   0.000  0.00  0.00    -0.324 N 
ATOM      5  H   UNL     1      -5.329  -2.254   0.000  0.00  0.00    +0.145 HD
ATOM      6  H   UNL     1      -5.065  -0.569   0.000  0.00  0.00    +0.145 HD
ATOM      7  O   UNL     1      -2.689  -3.120   0.000  0.00  0.00    -0.269 OA
ENDBRANCH   2   3
BRANCH  11  12
ATOM     12  C   UNL     1       3.655   0.082   0.000  0.00  0.00    +0.166 C 
BRANCH  12  13
ATOM     13  C   UNL     1       4.191   1.483   0.000  0.00  0.00    +0.132 C 
ATOM     14 CL   UNL     1       3.245   2.647   0.000  0.00  0.00    -0.124 Cl
ENDBRANCH  12  13
ENDBRANCH  11  12
TORSDOF 3