REMARK  Name = 28341
REMARK  2 active torsions:
REMARK  status: ('A' for Active; 'I' for Inactive)
REMARK    1  A    between atoms: N_1  and  C_9
REMARK    2  A    between atoms: C_14  and  N_16
REMARK                            x       y       z     vdW  Elec       q    Type
REMARK                         _______ _______ _______ _____ _____    ______ ____
ROOT
ATOM      1  N   UNL     1      -0.876   6.077   0.000  0.00  0.00    -0.212 N 
ATOM      2  C   UNL     1      -2.090   5.195   0.000  0.00  0.00    +0.095 A 
ATOM      3  C   UNL     1      -1.626   3.769   0.000  0.00  0.00    +0.115 A 
ATOM      4  C   UNL     1      -2.630   2.654   0.000  0.00  0.00    +0.054 A 
ATOM      5  C   UNL     1      -4.097   2.966   0.000  0.00  0.00    +0.027 A 
ATOM      9  C   UNL     1      -4.561   4.392   0.000  0.00  0.00    +0.025 A 
ATOM     10  N   UNL     1      -0.126   3.769   0.000  0.00  0.00    -0.129 NA
ATOM     11  C   UNL     1      -3.557   5.507   0.000  0.00  0.00    +0.032 A 
ATOM     18  N   UNL     1       0.338   5.195   0.000  0.00  0.00    -0.060 NA
ENDROOT
BRANCH   1  12
ATOM     12  C   UNL     1      -0.876   7.577   0.000  0.00  0.00    +0.068 A 
ATOM     13  C   UNL     1      -2.175   8.327   0.000  0.00  0.00    +0.028 A 
ATOM     14  C   UNL     1      -2.175   9.827   0.000  0.00  0.00    +0.002 A 
ATOM     15  C   UNL     1      -0.876  10.577   0.000  0.00  0.00    +0.000 A 
ATOM     16  C   UNL     1       0.423   9.827   0.000  0.00  0.00    +0.002 A 
ATOM     17  C   UNL     1       0.423   8.327   0.000  0.00  0.00    +0.028 A 
ENDBRANCH   1  12
BRANCH   5   6
ATOM      6  N   UNL     1      -5.101   1.851   0.000  0.00  0.00    -0.358 N 
ATOM      7  H   UNL     1      -4.796   0.915   0.000  0.00  0.00    +0.142 HD
ATOM      8  H   UNL     1      -6.064   2.056   0.000  0.00  0.00    +0.142 HD
ENDBRANCH   5   6
TORSDOF 2