REMARK  Name = 319471
REMARK  6 active torsions:
REMARK  status: ('A' for Active; 'I' for Inactive)
REMARK    1  A    between atoms: O_1  and  C_2
REMARK    2  A    between atoms: O_1  and  C_15
REMARK    3  A    between atoms: C_7  and  N_8
REMARK    4  A    between atoms: C_13  and  C_16
REMARK    5  A    between atoms: C_13  and  C_17
REMARK    6  A    between atoms: C_17  and  O_18
REMARK                            x       y       z     vdW  Elec       q    Type
REMARK                         _______ _______ _______ _____ _____    ______ ____
ROOT
ATOM      7  N   UNL     1       4.774   3.623   0.000  0.00  0.00    -0.226 NA
ATOM      8  C   UNL     1       5.524   4.922   0.000  0.00  0.00    +0.155 C 
ATOM      9  S   UNL     1       7.016   5.078   0.000  0.00  0.00    -0.088 S 
ATOM     10  C   UNL     1       7.328   6.546   0.000  0.00  0.00    +0.104 C 
ATOM     11  C   UNL     1       6.029   7.296   0.000  0.00  0.00    +0.063 C 
ATOM     15  C   UNL     1       6.911   8.509   0.000  0.00  0.00    +0.035 C 
ATOM     16  N   UNL     1       4.914   6.292   0.000  0.00  0.00    -0.315 N 
ATOM     17  H   UNL     1       3.447   6.604   0.000  0.00  0.00    +0.149 HD
ENDROOT
BRANCH   7   6
ATOM      3  C   UNL     1       0.275   3.623   0.000  0.00  0.00    +0.120 A 
ATOM      4  C   UNL     1       1.025   2.324   0.000  0.00  0.00    +0.048 A 
ATOM      5  C   UNL     1       2.525   2.324   0.000  0.00  0.00    +0.031 A 
ATOM      6  C   UNL     1       3.275   3.623   0.000  0.00  0.00    +0.067 A 
ATOM     18  C   UNL     1       2.525   4.922   0.000  0.00  0.00    +0.031 A 
ATOM     19  C   UNL     1       1.025   4.922   0.000  0.00  0.00    +0.048 A 
BRANCH   3   1
ATOM      1  O   UNL     1      -1.226   3.623   0.000  0.00  0.00    -0.495 OA
ATOM      2  C   UNL     1      -1.976   4.922   0.000  0.00  0.00    +0.277 C 
ENDBRANCH   3   1
ENDBRANCH   7   6
BRANCH  11  12
ATOM     12  C   UNL     1       4.914   8.299   0.000  0.00  0.00    +0.182 C 
BRANCH  12  13
ATOM     13  O   UNL     1       3.488   7.836   0.000  0.00  0.00    -0.393 OA
ATOM     14  H   UNL     1       2.767   8.485   0.000  0.00  0.00    +0.209 HD
ENDBRANCH  12  13
ENDBRANCH  11  12
TORSDOF 4