REMARK  Name = 280594
REMARK  9 active torsions:
REMARK  status: ('A' for Active; 'I' for Inactive)
REMARK    1  A    between atoms: N_2  and  C_24
REMARK    2  A    between atoms: N_4  and  C_14
REMARK    3  A    between atoms: C_15  and  O_27
REMARK    4  A    between atoms: C_16  and  O_25
REMARK    5  A    between atoms: C_17  and  C_26
REMARK    6  A    between atoms: O_19  and  P_20
REMARK    7  A    between atoms: O_19  and  C_26
REMARK    8  A    between atoms: P_20  and  O_21
REMARK    9  A    between atoms: P_20  and  O_22
REMARK                            x       y       z     vdW  Elec       q    Type
REMARK                         _______ _______ _______ _____ _____    ______ ____
ROOT
ATOM      9  C   UNL     1       8.045  -5.163   0.000  0.00  0.00    +0.252 C 
ATOM     10  C   UNL     1       9.544  -5.124   0.000  0.00  0.00    +0.195 C 
ATOM     13  C   UNL     1      10.045  -6.538   0.000  0.00  0.00    +0.178 C 
ATOM     16  C   UNL     1       8.855  -7.451   0.000  0.00  0.00    +0.178 C 
ATOM     25  O   UNL     1       7.619  -6.602   0.000  0.00  0.00    -0.346 OA
ENDROOT
BRANCH   9   8
ATOM      1  N   UNL     1       3.623  -0.275   0.000  0.00  0.00    -0.154 NA
ATOM      2  C   UNL     1       3.623  -1.775   0.000  0.00  0.00    +0.146 A 
ATOM      3  N   UNL     1       2.324  -2.525   0.000  0.00  0.00    -0.341 N 
ATOM      4  H   UNL     1       2.324  -3.509   0.000  0.00  0.00    +0.144 HD
ATOM      5  H   UNL     1       1.471  -2.032   0.000  0.00  0.00    +0.144 HD
ATOM      6  C   UNL     1       4.922  -2.525   0.000  0.00  0.00    +0.047 A 
ATOM      7  C   UNL     1       5.632  -3.973   0.000  0.00  0.00    +0.102 A 
ATOM      8  N   UNL     1       7.132  -3.973   0.000  0.00  0.00    -0.302 N 
ATOM     26  C   UNL     1       7.520  -2.525   0.000  0.00  0.00    +0.149 A 
ATOM     27  N   UNL     1       8.819  -1.775   0.000  0.00  0.00    -0.218 NA
ATOM     28  C   UNL     1       8.819  -0.275   0.000  0.00  0.00    +0.225 A 
ATOM     29  N   UNL     1       7.520   0.475   0.000  0.00  0.00    -0.216 NA
ATOM     30  C   UNL     1       6.221  -0.275   0.000  0.00  0.00    +0.162 A 
ATOM     31  C   UNL     1       6.221  -1.775   0.000  0.00  0.00    +0.073 A 
ATOM     32  N   UNL     1       4.922   0.475   0.000  0.00  0.00    -0.248 N 
ATOM     33  C   UNL     1       4.922   1.976   0.000  0.00  0.00    +0.174 C 
ENDBRANCH   9   8
BRANCH  10  11
ATOM     11  O   UNL     1      10.394  -3.888   0.000  0.00  0.00    -0.385 OA
ATOM     12  H   UNL     1      11.361  -3.964   0.000  0.00  0.00    +0.210 HD
ENDBRANCH  10  11
BRANCH  13  14
ATOM     14  O   UNL     1      11.483  -6.964   0.000  0.00  0.00    -0.386 OA
ATOM     15  H   UNL     1      11.710  -7.907   0.000  0.00  0.00    +0.210 HD
ENDBRANCH  13  14
BRANCH  16  17
ATOM     17  C   UNL     1       8.894  -8.951   0.000  0.00  0.00    +0.206 C 
BRANCH  17  18
ATOM     18  O   UNL     1      10.212  -9.666   0.000  0.00  0.00    -0.284 OA
BRANCH  18  19
ATOM     19  P   UNL     1      10.252 -11.166   0.000  0.00  0.00    +0.472 P 
ATOM     24  O   UNL     1      11.751 -11.127   0.000  0.00  0.00    -0.228 OA
BRANCH  19  20
ATOM     20  O   UNL     1       8.752 -11.205   0.000  0.00  0.00    -0.303 OA
ATOM     21  H   UNL     1       8.245 -10.378   0.000  0.00  0.00    +0.222 HD
ENDBRANCH  19  20
BRANCH  19  22
ATOM     22  O   UNL     1      10.291 -12.666   0.000  0.00  0.00    -0.303 OA
ATOM     23  H   UNL     1       9.464 -13.172   0.000  0.00  0.00    +0.222 HD
ENDBRANCH  19  22
ENDBRANCH  18  19
ENDBRANCH  17  18
ENDBRANCH  16  17
TORSDOF 8