REMARK  Name = 34219
REMARK  6 active torsions:
REMARK  status: ('A' for Active; 'I' for Inactive)
REMARK    1  A    between atoms: C_10  and  C_12
REMARK    2  A    between atoms: C_15  and  C_17
REMARK    3  A    between atoms: C_16  and  C_19
REMARK    4  A    between atoms: C_17  and  C_18
REMARK    5  A    between atoms: C_19  and  C_20
REMARK    6  A    between atoms: C_20  and  C_21
REMARK                            x       y       z     vdW  Elec       q    Type
REMARK                         _______ _______ _______ _____ _____    ______ ____
ROOT
ATOM      1  O   UNL     1       2.223   6.649   0.000  0.00  0.00    -0.347 OA
ATOM      2  C   UNL     1       0.924   5.899   0.000  0.00  0.00    +0.169 C 
ATOM      3  C   UNL     1       0.924   4.399   0.000  0.00  0.00    +0.043 C 
ATOM      6  C   UNL     1       2.223   3.650   0.000  0.00  0.00    +0.127 C 
ATOM     10  O   UNL     1       3.522   4.399   0.000  0.00  0.00    -0.344 OA
ATOM     11  C   UNL     1       3.522   5.899   0.000  0.00  0.00    +0.284 C 
ENDROOT
BRANCH  11  12
ATOM     12  C   UNL     1       4.821   6.649   0.000  0.00  0.00    +0.030 A 
ATOM     13  C   UNL     1       6.120   5.899   0.000  0.00  0.00    +0.059 A 
ATOM     14  C   UNL     1       7.419   6.649   0.000  0.00  0.00    +0.167 A 
ATOM     15  C   UNL     1       7.419   8.149   0.000  0.00  0.00    +0.168 A 
ATOM     16  C   UNL     1       6.120   8.899   0.000  0.00  0.00    +0.070 A 
ATOM     17  O   UNL     1       8.846   8.613   0.000  0.00  0.00    -0.453 OA
ATOM     18  C   UNL     1       9.727   7.399   0.000  0.00  0.00    +0.466 C 
ATOM     19  O   UNL     1       8.846   6.186   0.000  0.00  0.00    -0.453 OA
ATOM     20  C   UNL     1       4.821   8.149   0.000  0.00  0.00    +0.053 A 
ATOM     21 CL   UNL     1       3.522   8.899   0.000  0.00  0.00    -0.083 Cl
ENDBRANCH  11  12
BRANCH   3   4
ATOM      4  C   UNL     1      -0.375   3.650   0.000  0.00  0.00    +0.005 C 
ATOM      5  C   UNL     1      -1.674   4.399   0.000  0.00  0.00    +0.004 C 
ENDBRANCH   3   4
BRANCH   6   7
ATOM      7  C   UNL     1       2.223   2.150   0.000  0.00  0.00    +0.032 C 
BRANCH   7   8
ATOM      8  C   UNL     1       0.924   1.400   0.000  0.00  0.00    -0.001 C 
ATOM      9  C   UNL     1      -0.375   2.150   0.000  0.00  0.00    +0.004 C 
ENDBRANCH   7   8
ENDBRANCH   6   7
TORSDOF 4