REMARK  Name = 32673
REMARK  7 active torsions:
REMARK  status: ('A' for Active; 'I' for Inactive)
REMARK    1  A    between atoms: C_1  and  O_20
REMARK    2  A    between atoms: C_2  and  C_17
REMARK    3  A    between atoms: C_4  and  C_25
REMARK    4  A    between atoms: C_6  and  N_21
REMARK    5  A    between atoms: C_7  and  N_24
REMARK    6  A    between atoms: C_17  and  C_18
REMARK    7  A    between atoms: C_17  and  C_19
REMARK                            x       y       z     vdW  Elec       q    Type
REMARK                         _______ _______ _______ _____ _____    ______ ____
ROOT
ATOM     10  N   UNL     1      -6.221   1.226   0.000  0.00  0.00    -0.269 N 
ATOM     11  H   UNL     1      -6.221   0.241   0.000  0.00  0.00    +0.156 HD
ATOM     12  C   UNL     1      -7.520   1.976   0.000  0.00  0.00    +0.308 C 
ATOM     13  N   UNL     1      -8.819   1.226   0.000  0.00  0.00    -0.269 N 
ATOM     14  H   UNL     1      -9.671   1.718   0.000  0.00  0.00    +0.156 HD
ATOM     25  O   UNL     1      -7.520   3.475   0.000  0.00  0.00    -0.252 OA
ENDROOT
BRANCH  13  15
ATOM     15  C   UNL     1      -8.819  -0.275   0.000  0.00  0.00    +0.042 A 
ATOM     16  C   UNL     1     -10.118  -1.025   0.000  0.00  0.00    +0.003 A 
ATOM     17  C   UNL     1     -11.417  -0.275   0.000  0.00  0.00    +0.010 A 
ATOM     18  C   UNL     1     -12.716  -1.025   0.000  0.00  0.00    +0.001 A 
ATOM     19  C   UNL     1     -12.716  -2.525   0.000  0.00  0.00    +0.001 A 
ATOM     20  C   UNL     1     -11.417  -3.275   0.000  0.00  0.00    +0.008 A 
ATOM     21  C   UNL     1     -10.118  -2.525   0.000  0.00  0.00    -0.016 A 
ATOM     22  C   UNL     1      -8.819  -3.275   0.000  0.00  0.00    +0.008 A 
ATOM     23  C   UNL     1      -7.520  -2.525   0.000  0.00  0.00    +0.002 A 
ATOM     24  C   UNL     1      -7.520  -1.025   0.000  0.00  0.00    +0.024 A 
ENDBRANCH  13  15
BRANCH  10   9
ATOM      1  C   UNL     1      -2.324   3.475   0.000  0.00  0.00    +0.121 A 
ATOM      4  C   UNL     1      -2.324   1.976   0.000  0.00  0.00    -0.002 A 
ATOM      8  C   UNL     1      -3.623   1.226   0.000  0.00  0.00    +0.031 A 
ATOM      9  C   UNL     1      -4.922   1.976   0.000  0.00  0.00    +0.038 A 
ATOM     26  C   UNL     1      -4.922   3.475   0.000  0.00  0.00    -0.026 A 
ATOM     27  C   UNL     1      -6.221   4.226   0.000  0.00  0.00    +0.046 C 
ATOM     28  C   UNL     1      -3.623   4.226   0.000  0.00  0.00    +0.050 A 
BRANCH   4   5
ATOM      5  C   UNL     1      -1.025   1.226   0.000  0.00  0.00    +0.016 C 
ATOM      6  C   UNL     1       0.275   1.976   0.000  0.00  0.00    +0.012 C 
ATOM      7  C   UNL     1      -1.025  -0.275   0.000  0.00  0.00    +0.012 C 
ENDBRANCH   4   5
BRANCH   1   2
ATOM      2  O   UNL     1      -1.025   4.226   0.000  0.00  0.00    -0.506 OA
ATOM      3  H   UNL     1      -0.213   3.757   0.000  0.00  0.00    +0.292 HD
ENDBRANCH   1   2
ENDBRANCH  10   9
TORSDOF 4