REMARK  Name = 400938
REMARK  4 active torsions:
REMARK  status: ('A' for Active; 'I' for Inactive)
REMARK    1  A    between atoms: N_1  and  C_12
REMARK    2  A    between atoms: N_2  and  C_13
REMARK    3  A    between atoms: C_11  and  O_19
REMARK    4  A    between atoms: C_18  and  C_20
REMARK                            x       y       z     vdW  Elec       q    Type
REMARK                         _______ _______ _______ _____ _____    ______ ____
ROOT
ATOM      2  C   UNL     1      -7.245  -4.890   0.000  0.00  0.00    +0.156 A 
ATOM      3  C   UNL     1      -8.544  -4.140   0.000  0.00  0.00    +0.146 A 
ATOM      6  C   UNL     1      -8.544  -2.640   0.000  0.00  0.00    +0.050 A 
ATOM      7  C   UNL     1      -7.245  -1.890   0.000  0.00  0.00    +0.033 A 
ATOM      8  C   UNL     1      -5.946  -2.640   0.000  0.00  0.00    +0.088 A 
ATOM      9  N   UNL     1      -4.520  -2.177   0.000  0.00  0.00    -0.257 N 
ATOM     10  N   UNL     1      -3.638  -3.390   0.000  0.00  0.00    -0.067 NA
ATOM     11  N   UNL     1      -4.520  -4.604   0.000  0.00  0.00    -0.127 NA
ATOM     12  H   UNL     1      -4.056  -0.750   0.000  0.00  0.00    +0.191 HD
ATOM     13  C   UNL     1      -5.946  -4.140   0.000  0.00  0.00    +0.143 A 
ENDROOT
BRANCH   2   1
ATOM      1  N   UNL     1      -6.732  -6.300   0.000  0.00  0.00    -0.143 NA
ATOM     14  N   UNL     1      -7.696  -7.449   0.000  0.00  0.00    -0.149 NA
BRANCH  14  15
ATOM     15  C   UNL     1      -9.174  -7.188   0.000  0.00  0.00    +0.086 A 
ATOM     16  C   UNL     1     -10.138  -8.337   0.000  0.00  0.00    +0.030 A 
ATOM     17  C   UNL     1     -11.615  -8.077   0.000  0.00  0.00    +0.005 A 
ATOM     18  C   UNL     1     -12.128  -6.667   0.000  0.00  0.00    -0.050 A 
ATOM     19  C   UNL     1     -13.605  -6.407   0.000  0.00  0.00    +0.044 C 
ATOM     20  C   UNL     1     -11.164  -5.518   0.000  0.00  0.00    +0.005 A 
ATOM     21  C   UNL     1      -9.687  -5.779   0.000  0.00  0.00    +0.030 A 
ENDBRANCH  14  15
ENDBRANCH   2   1
BRANCH   3   4
ATOM      4  O   UNL     1      -9.843  -4.890   0.000  0.00  0.00    -0.505 OA
ATOM      5  H   UNL     1     -10.655  -4.422   0.000  0.00  0.00    +0.292 HD
ENDBRANCH   3   4
TORSDOF 3