REMARK  Name = 274905
REMARK  1 active torsions:
REMARK  status: ('A' for Active; 'I' for Inactive)
REMARK    1  A    between atoms: C_9  and  C_12
REMARK                            x       y       z     vdW  Elec       q    Type
REMARK                         _______ _______ _______ _____ _____    ______ ____
ROOT
ATOM      1  C   UNL     1       1.674   1.400   0.000  0.00  0.00    +0.001 A 
ATOM      2  C   UNL     1       1.674  -0.101   0.000  0.00  0.00    +0.001 A 
ATOM      3  C   UNL     1       2.973  -0.851   0.000  0.00  0.00    +0.008 A 
ATOM      4  C   UNL     1       4.272  -0.101   0.000  0.00  0.00    -0.017 A 
ATOM      5  C   UNL     1       5.571  -0.851   0.000  0.00  0.00    +0.017 A 
ATOM      6  C   UNL     1       6.870  -0.100   0.000  0.00  0.00    -0.013 A 
ATOM     16  C   UNL     1       6.870   1.400   0.000  0.00  0.00    +0.009 A 
ATOM     17  C   UNL     1       5.571   2.150   0.000  0.00  0.00    +0.009 A 
ATOM     18  C   UNL     1       4.272   1.400   0.000  0.00  0.00    -0.018 A 
ATOM     19  C   UNL     1       2.973   2.150   0.000  0.00  0.00    +0.008 A 
ENDROOT
BRANCH   6   7
ATOM      7  C   UNL     1       8.169  -0.850   0.000  0.00  0.00    +0.040 A 
ATOM      8  C   UNL     1       9.468  -0.100   0.000  0.00  0.00    +0.124 A 
ATOM      9  N   UNL     1      10.767  -0.850   0.000  0.00  0.00    -0.243 NA
ATOM     10  C   UNL     1      10.767  -2.350   0.000  0.00  0.00    +0.223 A 
ATOM     11  N   UNL     1       9.468  -3.100   0.000  0.00  0.00    -0.221 NA
ATOM     12  C   UNL     1       8.169  -2.350   0.000  0.00  0.00    +0.127 A 
ATOM     13  N   UNL     1       6.870  -3.100   0.000  0.00  0.00    -0.343 N 
ATOM     14  H   UNL     1       6.870  -4.085   0.000  0.00  0.00    +0.144 HD
ATOM     15  H   UNL     1       6.018  -2.608   0.000  0.00  0.00    +0.144 HD
ENDBRANCH   6   7
TORSDOF 1