REMARK  Name = 375982
REMARK  3 active torsions:
REMARK  status: ('A' for Active; 'I' for Inactive)
REMARK    1  A    between atoms: C_9  and  N_23
REMARK    2  A    between atoms: C_13  and  N_25
REMARK    3  A    between atoms: C_14  and  C_24
REMARK                            x       y       z     vdW  Elec       q    Type
REMARK                         _______ _______ _______ _____ _____    ______ ____
ROOT
ATOM      8  C   UNL     1      -3.000   5.946   0.000  0.00  0.00    +0.037 A 
ATOM      9  C   UNL     1      -1.500   5.946   0.000  0.00  0.00    +0.024 A 
ATOM     10  C   UNL     1      -0.750   7.245   0.000  0.00  0.00    +0.007 A 
ATOM     11  C   UNL     1      -1.500   8.544   0.000  0.00  0.00    -0.029 A 
ATOM     12  C   UNL     1      -0.750   9.843   0.000  0.00  0.00    +0.045 C 
ATOM     13  C   UNL     1      -3.000   8.544   0.000  0.00  0.00    +0.039 A 
ATOM     24  C   UNL     1      -3.750   7.245   0.000  0.00  0.00    +0.047 A 
ENDROOT
BRANCH   8   6
ATOM      1  C   UNL     1      -7.500   0.750   0.000  0.00  0.00    +0.003 C 
ATOM      2  C   UNL     1      -6.000   0.750   0.000  0.00  0.00    +0.019 C 
ATOM      3  C   UNL     1      -5.250   2.049   0.000  0.00  0.00    +0.109 C 
ATOM      4  N   UNL     1      -6.000   3.348   0.000  0.00  0.00    -0.285 N 
ATOM      5  C   UNL     1      -5.250   4.647   0.000  0.00  0.00    +0.306 C 
ATOM      6  N   UNL     1      -3.750   4.647   0.000  0.00  0.00    -0.269 N 
ATOM      7  H   UNL     1      -3.258   3.795   0.000  0.00  0.00    +0.156 HD
ATOM     25  O   UNL     1      -6.000   5.946   0.000  0.00  0.00    -0.252 OA
ATOM     26  C   UNL     1      -7.500   3.348   0.000  0.00  0.00    +0.109 C 
ATOM     27  C   UNL     1      -8.250   2.049   0.000  0.00  0.00    +0.019 C 
ENDBRANCH   8   6
BRANCH  13  14
ATOM     14  N   UNL     1      -3.750   9.843   0.000  0.00  0.00    -0.269 N 
ATOM     15  H   UNL     1      -3.258  10.696   0.000  0.00  0.00    +0.156 HD
ATOM     16  C   UNL     1      -5.250   9.843   0.000  0.00  0.00    +0.306 C 
ATOM     17  N   UNL     1      -6.000  11.142   0.000  0.00  0.00    -0.285 N 
ATOM     18  C   UNL     1      -5.250  12.441   0.000  0.00  0.00    +0.109 C 
ATOM     19  C   UNL     1      -6.000  13.740   0.000  0.00  0.00    +0.019 C 
ATOM     20  C   UNL     1      -7.500  13.740   0.000  0.00  0.00    +0.003 C 
ATOM     21  C   UNL     1      -8.250  12.441   0.000  0.00  0.00    +0.019 C 
ATOM     22  C   UNL     1      -7.500  11.142   0.000  0.00  0.00    +0.109 C 
ATOM     23  O   UNL     1      -6.000   8.544   0.000  0.00  0.00    -0.252 OA
ENDBRANCH  13  14
TORSDOF 2