REMARK  Name = 379697
REMARK  4 active torsions:
REMARK  status: ('A' for Active; 'I' for Inactive)
REMARK    1  A    between atoms: C_5  and  C_8
REMARK    2  A    between atoms: C_13  and  N_22
REMARK    3  A    between atoms: C_14  and  C_23
REMARK    4  A    between atoms: C_15  and  N_22
REMARK                            x       y       z     vdW  Elec       q    Type
REMARK                         _______ _______ _______ _____ _____    ______ ____
ROOT
ATOM      5  C   UNL     1       4.647   4.500   0.000  0.00  0.00    +0.168 C 
ATOM      6  N   UNL     1       4.647   3.000   0.000  0.00  0.00    -0.295 N 
ATOM      7  C   UNL     1       5.946   2.250   0.000  0.00  0.00    +0.258 C 
ATOM      8  O   UNL     1       5.946   0.750   0.000  0.00  0.00    -0.269 OA
ATOM      9  C   UNL     1       7.245   3.000   0.000  0.00  0.00    +0.141 C 
ATOM     12  C   UNL     1       7.245   4.500   0.000  0.00  0.00    +0.090 C 
ATOM     22  H   UNL     1       3.348   2.250   0.000  0.00  0.00    +0.150 HD
ATOM     23  S   UNL     1       5.946   5.250   0.000  0.00  0.00    -0.081 S 
ENDROOT
BRANCH   5   4
ATOM      1  N   UNL     1       0.750   6.750   0.000  0.00  0.00    -0.263 NA
ATOM      2  C   UNL     1       0.750   5.250   0.000  0.00  0.00    +0.111 A 
ATOM      3  C   UNL     1       2.049   4.500   0.000  0.00  0.00    +0.026 A 
ATOM      4  C   UNL     1       3.348   5.250   0.000  0.00  0.00    -0.014 A 
ATOM     24  C   UNL     1       3.348   6.750   0.000  0.00  0.00    +0.026 A 
ATOM     25  C   UNL     1       2.049   7.500   0.000  0.00  0.00    +0.111 A 
ENDBRANCH   5   4
BRANCH   9  10
ATOM     10  C   UNL     1       8.544   2.250   0.000  0.00  0.00    +0.107 C 
ATOM     11  N   UNL     1       9.843   1.500   0.000  0.00  0.00    -0.191 NA
ENDBRANCH   9  10
BRANCH  12  13
ATOM     13  N   UNL     1       8.544   5.250   0.000  0.00  0.00    -0.307 N 
ATOM     14  H   UNL     1       8.544   6.234   0.000  0.00  0.00    +0.153 HD
BRANCH  13  15
ATOM     15  C   UNL     1       9.843   4.500   0.000  0.00  0.00    +0.050 A 
ATOM     16  C   UNL     1       9.843   3.000   0.000  0.00  0.00    +0.025 A 
ATOM     17  C   UNL     1      11.142   2.250   0.000  0.00  0.00    +0.002 A 
ATOM     18  C   UNL     1      12.441   3.000   0.000  0.00  0.00    +0.002 A 
ATOM     19  C   UNL     1      12.441   4.500   0.000  0.00  0.00    +0.022 A 
ATOM     20  C   UNL     1      11.142   5.250   0.000  0.00  0.00    +0.062 A 
ATOM     21 CL   UNL     1      11.142   6.750   0.000  0.00  0.00    -0.082 Cl
ENDBRANCH  13  15
ENDBRANCH  12  13
TORSDOF 4