REMARK  Name = 216606
REMARK  6 active torsions:
REMARK  status: ('A' for Active; 'I' for Inactive)
REMARK    1  A    between atoms: O_2  and  C_18
REMARK    2  A    between atoms: O_2  and  C_20
REMARK    3  A    between atoms: O_3  and  C_12
REMARK    4  A    between atoms: O_3  and  C_21
REMARK    5  A    between atoms: C_7  and  N_17
REMARK    6  A    between atoms: C_20  and  C_21
REMARK                            x       y       z     vdW  Elec       q    Type
REMARK                         _______ _______ _______ _____ _____    ______ ____
ROOT
ATOM      6  N   UNL     1      -1.558   0.986   0.000  0.00  0.00    -0.251 N 
ATOM      7  H   UNL     1      -1.516   1.970   0.000  0.00  0.00    +0.158 HD
ATOM      8  C   UNL     1      -0.292   0.181   0.000  0.00  0.00    +0.405 C 
ATOM      9  O   UNL     1      -0.356  -1.317   0.000  0.00  0.00    -0.226 OA
ENDROOT
BRANCH   6   5
ATOM      1  F   UNL     1      -6.878  -1.789   0.000  0.00  0.00    -0.205 F 
ATOM      2  C   UNL     1      -5.548  -1.095   0.000  0.00  0.00    +0.124 A 
ATOM      3  C   UNL     1      -5.484   0.403   0.000  0.00  0.00    +0.040 A 
ATOM      4  C   UNL     1      -4.154   1.097   0.000  0.00  0.00    +0.026 A 
ATOM      5  C   UNL     1      -2.888   0.292   0.000  0.00  0.00    +0.037 A 
ATOM     21  C   UNL     1      -2.952  -1.206   0.000  0.00  0.00    +0.026 A 
ATOM     22  C   UNL     1      -4.282  -1.900   0.000  0.00  0.00    +0.040 A 
ENDBRANCH   6   5
BRANCH   8  10
ATOM     10  O   UNL     1       1.038   0.875   0.000  0.00  0.00    -0.447 OA
BRANCH  10  11
ATOM     11  C   UNL     1       0.841   2.362   0.000  0.00  0.00    +0.274 C 
BRANCH  11  12
ATOM     12  C   UNL     1       2.030   3.276   0.000  0.00  0.00    +0.270 C 
BRANCH  12  13
ATOM     13  O   UNL     1       3.416   2.704   0.000  0.00  0.00    -0.489 OA
BRANCH  13  14
ATOM     14  C   UNL     1       3.613   1.216   0.000  0.00  0.00    +0.121 A 
ATOM     15  C   UNL     1       5.000   0.644   0.000  0.00  0.00    +0.047 A 
ATOM     16  C   UNL     1       5.197  -0.843   0.000  0.00  0.00    +0.019 A 
ATOM     17  C   UNL     1       4.008  -1.758   0.000  0.00  0.00    +0.018 A 
ATOM     18  C   UNL     1       2.621  -1.185   0.000  0.00  0.00    +0.019 A 
ATOM     19 BR   UNL     1       4.205  -3.244   0.000  0.00  0.00    -0.050 Br
ATOM     20  C   UNL     1       2.424   0.302   0.000  0.00  0.00    +0.047 A 
ENDBRANCH  13  14
ENDBRANCH  12  13
ENDBRANCH  11  12
ENDBRANCH  10  11
ENDBRANCH   8  10
TORSDOF 6