REMARK  Name = 321502
REMARK  2 active torsions:
REMARK  status: ('A' for Active; 'I' for Inactive)
REMARK    1  A    between atoms: C_10  and  C_12
REMARK    2  A    between atoms: C_15  and  C_16
REMARK                            x       y       z     vdW  Elec       q    Type
REMARK                         _______ _______ _______ _____ _____    ______ ____
ROOT
ATOM      8  C   UNL     1       8.455   2.250   0.000  0.00  0.00    +0.114 A 
ATOM      9  N   UNL     1       9.337   3.463   0.000  0.00  0.00    -0.236 NA
ATOM     10  C   UNL     1      10.764   3.000   0.000  0.00  0.00    +0.109 A 
ATOM     18  S   UNL     1      10.764   1.500   0.000  0.00  0.00    -0.075 S 
ATOM     19  C   UNL     1       9.337   1.037   0.000  0.00  0.00    +0.078 A 
ENDROOT
BRANCH   8   7
ATOM      1 CL   UNL     1       0.750   3.750   0.000  0.00  0.00    -0.084 Cl
ATOM      2  C   UNL     1       2.049   3.000   0.000  0.00  0.00    +0.042 A 
ATOM      3  C   UNL     1       2.049   1.500   0.000  0.00  0.00    +0.023 A 
ATOM      4  C   UNL     1       3.348   0.750   0.000  0.00  0.00    +0.048 A 
ATOM      5  C   UNL     1       4.647   1.500   0.000  0.00  0.00    +0.136 A 
ATOM      6  O   UNL     1       6.074   1.037   0.000  0.00  0.00    -0.453 OA
ATOM      7  C   UNL     1       6.955   2.250   0.000  0.00  0.00    +0.155 A 
ATOM     20  C   UNL     1       6.074   3.463   0.000  0.00  0.00    +0.060 A 
ATOM     21  C   UNL     1       4.647   3.000   0.000  0.00  0.00    +0.022 A 
ATOM     22  C   UNL     1       3.348   3.750   0.000  0.00  0.00    +0.031 A 
ENDBRANCH   8   7
BRANCH  10  11
ATOM     11  C   UNL     1      11.977   3.882   0.000  0.00  0.00    +0.007 A 
ATOM     12  C   UNL     1      13.348   3.272   0.000  0.00  0.00    +0.012 A 
ATOM     13  C   UNL     1      14.561   4.153   0.000  0.00  0.00    +0.020 A 
ATOM     14  C   UNL     1      14.404   5.645   0.000  0.00  0.00    +0.041 A 
ATOM     15 CL   UNL     1      15.618   6.527   0.000  0.00  0.00    -0.084 Cl
ATOM     16  C   UNL     1      13.034   6.255   0.000  0.00  0.00    +0.020 A 
ATOM     17  C   UNL     1      11.820   5.373   0.000  0.00  0.00    +0.012 A 
ENDBRANCH  10  11
TORSDOF 2