REMARK  Name = 281307
REMARK  3 active torsions:
REMARK  status: ('A' for Active; 'I' for Inactive)
REMARK    1  A    between atoms: N_3  and  C_15
REMARK    2  A    between atoms: C_9  and  C_11
REMARK    3  A    between atoms: C_15  and  C_16
REMARK                            x       y       z     vdW  Elec       q    Type
REMARK                         _______ _______ _______ _____ _____    ______ ____
ROOT
ATOM      1  N   UNL     1      -4.311   9.281   0.000  0.00  0.00    -0.061 NA
ATOM      2  N   UNL     1      -3.430   8.067   0.000  0.00  0.00    -0.202 N 
ATOM     10  C   UNL     1      -2.003   8.531   0.000  0.00  0.00    +0.293 A 
ATOM     11  N   UNL     1      -0.704   7.781   0.000  0.00  0.00    -0.020 NA
ATOM     12  C   UNL     1       0.595   8.531   0.000  0.00  0.00    +0.341 C 
ATOM     17  N   UNL     1       0.595  10.031   0.000  0.00  0.00    -0.228 N 
ATOM     18  H   UNL     1       1.894  10.781   0.000  0.00  0.00    +0.292 HD
ATOM     19  C   UNL     1      -0.704  10.781   0.000  0.00  0.00    +0.287 C 
ATOM     20  C   UNL     1      -2.003  10.031   0.000  0.00  0.00    +0.174 A 
ATOM     21  N   UNL     1      -3.430  10.494   0.000  0.00  0.00    -0.126 NA
ENDROOT
BRANCH  12  13
ATOM     13  C   UNL     1       1.894   7.781   0.000  0.00  0.00    +0.293 C 
ATOM     14 CL   UNL     1       1.894   6.281   0.000  0.00  0.00    -0.071 Cl
ATOM     15 CL   UNL     1       3.193   7.031   0.000  0.00  0.00    -0.071 Cl
ATOM     16 CL   UNL     1       3.193   8.531   0.000  0.00  0.00    -0.071 Cl
ENDBRANCH  12  13
BRANCH   2   3
ATOM      3  C   UNL     1      -3.893   6.641   0.000  0.00  0.00    +0.184 C 
BRANCH   3   4
ATOM      4  C   UNL     1      -2.889   5.526   0.000  0.00  0.00    -0.026 A 
ATOM      5  C   UNL     1      -3.353   4.099   0.000  0.00  0.00    +0.005 A 
ATOM      6  C   UNL     1      -2.349   2.985   0.000  0.00  0.00    +0.000 A 
ATOM      7  C   UNL     1      -0.882   3.296   0.000  0.00  0.00    +0.000 A 
ATOM      8  C   UNL     1      -0.418   4.723   0.000  0.00  0.00    +0.000 A 
ATOM      9  C   UNL     1      -1.422   5.838   0.000  0.00  0.00    +0.005 A 
ENDBRANCH   3   4
ENDBRANCH   2   3
TORSDOF 3