REMARK  Name = 33570
REMARK  6 active torsions:
REMARK  status: ('A' for Active; 'I' for Inactive)
REMARK    1  A    between atoms: N_1  and  C_24
REMARK    2  A    between atoms: C_8  and  C_19
REMARK    3  A    between atoms: C_13  and  C_24
REMARK    4  A    between atoms: C_20  and  C_21
REMARK    5  A    between atoms: C_21  and  C_23
REMARK    6  A    between atoms: C_23  and  C_24
REMARK                            x       y       z     vdW  Elec       q    Type
REMARK                         _______ _______ _______ _____ _____    ______ ____
ROOT
ATOM      2  C   UNL     1       2.802   6.984   0.000  0.00  0.00    +0.094 C 
ENDROOT
BRANCH   2   1
ATOM      1  N   UNL     1       4.101   6.234   0.000  0.00  0.00    -0.291 NA
ATOM     20  C   UNL     1       4.101   4.734   0.000  0.00  0.00    +0.113 C 
ATOM     21  C   UNL     1       5.400   3.984   0.000  0.00  0.00    +0.175 C 
ATOM     22  O   UNL     1       6.699   4.734   0.000  0.00  0.00    -0.377 OA
ATOM     23  C   UNL     1       6.699   6.234   0.000  0.00  0.00    +0.175 C 
ATOM     24  C   UNL     1       5.400   6.984   0.000  0.00  0.00    +0.113 C 
ENDBRANCH   2   1
BRANCH   2  14
ATOM     14  C   UNL     1       1.503   6.234   0.000  0.00  0.00    -0.030 A 
ATOM     15  C   UNL     1       1.503   4.734   0.000  0.00  0.00    +0.005 A 
ATOM     16  C   UNL     1       0.204   3.984   0.000  0.00  0.00    +0.000 A 
ATOM     17  C   UNL     1      -1.095   4.734   0.000  0.00  0.00    +0.000 A 
ATOM     18  C   UNL     1      -1.095   6.234   0.000  0.00  0.00    +0.000 A 
ATOM     19  C   UNL     1       0.204   6.984   0.000  0.00  0.00    +0.005 A 
ENDBRANCH   2  14
BRANCH   2   3
ATOM      3  C   UNL     1       2.802   8.484   0.000  0.00  0.00    +0.102 C 
BRANCH   3   4
ATOM      4  C   UNL     1       4.101   9.234   0.000  0.00  0.00    +0.158 C 
ATOM      5  O   UNL     1       4.101  10.734   0.000  0.00  0.00    -0.293 OA
BRANCH   4   6
ATOM      6  C   UNL     1       5.400   8.484   0.000  0.00  0.00    +0.047 C 
ATOM      7  C   UNL     1       6.699   9.234   0.000  0.00  0.00    +0.011 C 
BRANCH   7   8
ATOM      8  C   UNL     1       7.998   8.484   0.000  0.00  0.00    -0.025 A 
ATOM      9  C   UNL     1       9.297   9.234   0.000  0.00  0.00    +0.008 A 
ATOM     10  C   UNL     1      10.596   8.484   0.000  0.00  0.00    +0.001 A 
ATOM     11  C   UNL     1      10.596   6.984   0.000  0.00  0.00    +0.000 A 
ATOM     12  C   UNL     1       9.297   6.234   0.000  0.00  0.00    +0.001 A 
ATOM     13  C   UNL     1       7.998   6.984   0.000  0.00  0.00    +0.008 A 
ENDBRANCH   7   8
ENDBRANCH   4   6
ENDBRANCH   3   4
ENDBRANCH   2   3
TORSDOF 6