REMARK  Name = 339578
REMARK  0 active torsions:
REMARK  status: ('A' for Active; 'I' for Inactive)
REMARK                            x       y       z     vdW  Elec       q    Type
REMARK                         _______ _______ _______ _____ _____    ______ ____
ROOT
ATOM      1  C   UNL     1       3.623   1.775   0.000  0.00  0.00    +0.215 A 
ATOM      2  N   UNL     1       2.324   2.525   0.000  0.00  0.00    -0.327 N 
ATOM      3  H   UNL     1       1.471   2.032   0.000  0.00  0.00    +0.145 HD
ATOM      4  H   UNL     1       2.324   3.509   0.000  0.00  0.00    +0.145 HD
ATOM      5  N   UNL     1       3.623   0.275   0.000  0.00  0.00    -0.215 NA
ATOM      6  C   UNL     1       4.922  -0.475   0.000  0.00  0.00    +0.079 A 
ATOM      7  C   UNL     1       4.922  -1.976   0.000  0.00  0.00    +0.030 A 
ATOM      8  C   UNL     1       6.221  -2.725   0.000  0.00  0.00    +0.028 A 
ATOM      9  C   UNL     1       7.520  -1.976   0.000  0.00  0.00    +0.047 A 
ATOM     10  N   UNL     1       8.946  -2.439   0.000  0.00  0.00    -0.361 N 
ATOM     11  C   UNL     1       9.828  -1.226   0.000  0.00  0.00    +0.083 A 
ATOM     12  C   UNL     1       8.946  -0.012   0.000  0.00  0.00    +0.028 A 
ATOM     13  H   UNL     1       9.410  -3.866   0.000  0.00  0.00    +0.165 HD
ATOM     14  C   UNL     1       7.520  -0.475   0.000  0.00  0.00    +0.012 A 
ATOM     15  C   UNL     1       6.221   0.275   0.000  0.00  0.00    +0.049 A 
ATOM     16  C   UNL     1       6.221   1.775   0.000  0.00  0.00    +0.130 A 
ATOM     17  N   UNL     1       7.520   2.525   0.000  0.00  0.00    -0.343 N 
ATOM     18  H   UNL     1       7.520   3.509   0.000  0.00  0.00    +0.144 HD
ATOM     19  H   UNL     1       8.372   2.032   0.000  0.00  0.00    +0.144 HD
ATOM     20  N   UNL     1       4.922   2.525   0.000  0.00  0.00    -0.199 NA
ENDROOT
TORSDOF 0