REMARK  Name = 276369
REMARK  4 active torsions:
REMARK  status: ('A' for Active; 'I' for Inactive)
REMARK    1  A    between atoms: C_6  and  O_8
REMARK    2  A    between atoms: O_8  and  C_11
REMARK    3  A    between atoms: N_12  and  C_13
REMARK    4  A    between atoms: C_13  and  C_14
REMARK                            x       y       z     vdW  Elec       q    Type
REMARK                         _______ _______ _______ _____ _____    ______ ____
ROOT
ATOM      1  C   UNL     1      -6.649   2.973   0.000  0.00  0.00    +0.021 A 
ATOM      2  C   UNL     1      -8.149   2.973   0.000  0.00  0.00    +0.086 A 
ATOM      3  N   UNL     1      -8.899   1.674   0.000  0.00  0.00    -0.326 N 
ATOM      4  H   UNL     1     -10.400   1.674   0.000  0.00  0.00    +0.168 HD
ATOM      5  C   UNL     1      -8.149   0.375   0.000  0.00  0.00    +0.291 A 
ATOM      6  O   UNL     1      -8.899  -0.924   0.000  0.00  0.00    -0.264 OA
ATOM      7  C   UNL     1      -6.649   0.375   0.000  0.00  0.00    +0.197 A 
ATOM     15  C   UNL     1      -5.899   1.674   0.000  0.00  0.00    +0.053 A 
ENDROOT
BRANCH   7   8
ATOM      8  O   UNL     1      -5.899  -0.924   0.000  0.00  0.00    -0.406 OA
BRANCH   8   9
ATOM      9  C   UNL     1      -4.399  -0.924   0.000  0.00  0.00    +0.406 C 
ATOM     10  N   UNL     1      -3.650  -2.223   0.000  0.00  0.00    -0.281 N 
ATOM     11  H   UNL     1      -4.142  -3.076   0.000  0.00  0.00    +0.152 HD
ATOM     14  O   UNL     1      -3.650   0.375   0.000  0.00  0.00    -0.226 OA
BRANCH  10  12
ATOM     12  C   UNL     1      -2.150  -2.223   0.000  0.00  0.00    +0.104 C 
ATOM     13  C   UNL     1      -1.400  -0.924   0.000  0.00  0.00    +0.024 C 
ENDBRANCH  10  12
ENDBRANCH   8   9
ENDBRANCH   7   8
TORSDOF 3