REMARK  Name = 329249
REMARK  2 active torsions:
REMARK  status: ('A' for Active; 'I' for Inactive)
REMARK    1  A    between atoms: C_12  and  N_20
REMARK    2  A    between atoms: C_16  and  N_21
REMARK                            x       y       z     vdW  Elec       q    Type
REMARK                         _______ _______ _______ _____ _____    ______ ____
ROOT
ATOM      1  C   UNL     1      -1.752   6.035   0.000  0.00  0.00    +0.002 A 
ATOM      2  C   UNL     1      -1.752   4.535   0.000  0.00  0.00    +0.001 A 
ATOM      3  C   UNL     1      -0.453   3.785   0.000  0.00  0.00    +0.017 A 
ATOM      4  C   UNL     1       0.846   4.535   0.000  0.00  0.00    +0.041 A 
ATOM      5  S   UNL     1       2.272   4.072   0.000  0.00  0.00    -0.052 S 
ATOM      6  C   UNL     1       3.154   5.285   0.000  0.00  0.00    +0.167 A 
ATOM      7  N   UNL     1       4.654   5.285   0.000  0.00  0.00    -0.248 N 
ATOM      8  H   UNL     1       5.146   4.432   0.000  0.00  0.00    +0.158 HD
ATOM      9  C   UNL     1       5.404   6.584   0.000  0.00  0.00    +0.310 C 
ATOM     10  N   UNL     1       6.904   6.584   0.000  0.00  0.00    -0.269 N 
ATOM     11  H   UNL     1       7.396   5.731   0.000  0.00  0.00    +0.156 HD
ATOM     22  O   UNL     1       4.654   7.883   0.000  0.00  0.00    -0.252 OA
ATOM     23  N   UNL     1       2.272   6.499   0.000  0.00  0.00    -0.225 NA
ATOM     24  C   UNL     1       0.846   6.035   0.000  0.00  0.00    +0.080 A 
ATOM     25  C   UNL     1      -0.453   6.785   0.000  0.00  0.00    +0.029 A 
ENDROOT
BRANCH  10  12
ATOM     12  C   UNL     1       7.654   7.883   0.000  0.00  0.00    +0.041 A 
ATOM     13  C   UNL     1       9.154   7.883   0.000  0.00  0.00    +0.109 A 
ATOM     14  C   UNL     1       9.904   9.182   0.000  0.00  0.00    +0.293 A 
ATOM     18  C   UNL     1       9.154  10.481   0.000  0.00  0.00    +0.118 A 
ATOM     19 CL   UNL     1       9.904  11.780   0.000  0.00  0.00    -0.077 Cl
ATOM     20  C   UNL     1       7.654  10.481   0.000  0.00  0.00    +0.028 A 
ATOM     21  C   UNL     1       6.904   9.182   0.000  0.00  0.00    +0.025 A 
BRANCH  14  15
ATOM     15  N   UNL     1      11.404   9.182   0.000  0.00  0.00    +0.081 N 
ATOM     16  O   UNL     1      12.154   7.883   0.000  0.00  0.00    +0.041 OA
ATOM     17  O   UNL     1      12.154  10.481   0.000  0.00  0.00    -0.576 OA
ENDBRANCH  14  15
ENDBRANCH  10  12
TORSDOF 2