REMARK  Name = 275266
REMARK  11 active torsions:
REMARK  status: ('A' for Active; 'I' for Inactive)
REMARK    1  A    between atoms: N_10  and  C_22
REMARK    2  A    between atoms: C_16  and  C_27
REMARK    3  A    between atoms: C_17  and  C_28
REMARK    4  A    between atoms: C_18  and  C_21
REMARK    5  A    between atoms: C_18  and  O_26
REMARK    6  A    between atoms: C_19  and  C_20
REMARK    7  A    between atoms: C_19  and  C_22
REMARK    8  A    between atoms: C_19  and  O_23
REMARK    9  A    between atoms: C_20  and  C_21
REMARK   10  A    between atoms: C_20  and  O_24
REMARK   11  A    between atoms: C_21  and  O_25
REMARK                            x       y       z     vdW  Elec       q    Type
REMARK                         _______ _______ _______ _____ _____    ______ ____
ROOT
ATOM      1  H   UNL     1       5.685   3.584   0.000  0.00  0.00    +0.172 HD
ATOM      2  N   UNL     1       6.984   2.834   0.000  0.00  0.00    -0.289 N 
ATOM      3  C   UNL     1       6.984   1.334   0.000  0.00  0.00    +0.253 A 
ATOM      4  C   UNL     1       8.283   0.584   0.000  0.00  0.00    +0.096 A 
ATOM      5  C   UNL     1       9.582   1.334   0.000  0.00  0.00    +0.060 A 
ATOM      6  N   UNL     1      10.881   0.584   0.000  0.00  0.00    -0.337 N 
ATOM     20  C   UNL     1      12.180   1.334   0.000  0.00  0.00    +0.050 A 
ATOM     21  C   UNL     1      13.479   0.584   0.000  0.00  0.00    +0.030 A 
ATOM     22  C   UNL     1      14.778   1.334   0.000  0.00  0.00    -0.046 A 
ATOM     23  C   UNL     1      16.077   0.584   0.000  0.00  0.00    +0.044 C 
ATOM     24  C   UNL     1      14.778   2.834   0.000  0.00  0.00    -0.047 A 
ATOM     25  C   UNL     1      16.077   3.584   0.000  0.00  0.00    +0.044 C 
ATOM     26  C   UNL     1      13.479   3.584   0.000  0.00  0.00    +0.013 A 
ATOM     27  C   UNL     1      12.180   2.834   0.000  0.00  0.00    -0.000 A 
ATOM     28  C   UNL     1      10.881   3.584   0.000  0.00  0.00    +0.025 A 
ATOM     29  C   UNL     1       9.582   2.834   0.000  0.00  0.00    +0.064 A 
ATOM     30  O   UNL     1       5.685   0.584   0.000  0.00  0.00    -0.268 OA
ATOM     31  C   UNL     1       8.283   3.584   0.000  0.00  0.00    +0.261 A 
ATOM     32  O   UNL     1       8.283   5.084   0.000  0.00  0.00    -0.267 OA
ENDROOT
BRANCH   6   7
ATOM      7  C   UNL     1      10.881  -0.916   0.000  0.00  0.00    +0.156 C 
BRANCH   7   8
ATOM      8  C   UNL     1      12.180  -1.666   0.000  0.00  0.00    +0.165 C 
BRANCH   8   9
ATOM      9  O   UNL     1      13.479  -0.916   0.000  0.00  0.00    -0.387 OA
ATOM     10  H   UNL     1      14.319  -1.401   0.000  0.00  0.00    +0.210 HD
ENDBRANCH   8   9
BRANCH   8  11
ATOM     11  C   UNL     1      12.180  -3.166   0.000  0.00  0.00    +0.175 C 
BRANCH  11  12
ATOM     12  O   UNL     1      13.479  -3.916   0.000  0.00  0.00    -0.387 OA
ATOM     13  H   UNL     1      13.479  -4.886   0.000  0.00  0.00    +0.210 HD
ENDBRANCH  11  12
BRANCH  11  14
ATOM     14  C   UNL     1      10.881  -3.916   0.000  0.00  0.00    +0.171 C 
BRANCH  14  15
ATOM     15  O   UNL     1      10.881  -5.416   0.000  0.00  0.00    -0.387 OA
ATOM     16  H   UNL     1      10.041  -5.901   0.000  0.00  0.00    +0.210 HD
ENDBRANCH  14  15
BRANCH  14  17
ATOM     17  C   UNL     1       9.582  -3.166   0.000  0.00  0.00    +0.189 C 
BRANCH  17  18
ATOM     18  O   UNL     1       8.283  -3.916   0.000  0.00  0.00    -0.392 OA
ATOM     19  H   UNL     1       7.443  -3.431   0.000  0.00  0.00    +0.210 HD
ENDBRANCH  17  18
ENDBRANCH  14  17
ENDBRANCH  11  14
ENDBRANCH   8  11
ENDBRANCH   7   8
ENDBRANCH   6   7
TORSDOF 9