REMARK  Name = 299514
REMARK  5 active torsions:
REMARK  status: ('A' for Active; 'I' for Inactive)
REMARK    1  A    between atoms: O_1  and  C_2
REMARK    2  A    between atoms: O_1  and  C_19
REMARK    3  A    between atoms: C_4  and  N_21
REMARK    4  A    between atoms: C_13  and  C_14
REMARK    5  A    between atoms: C_19  and  C_20
REMARK                            x       y       z     vdW  Elec       q    Type
REMARK                         _______ _______ _______ _____ _____    ______ ____
ROOT
ATOM      7  C   UNL     1       0.851   5.571   0.000  0.00  0.00    +0.039 A 
ATOM      8  C   UNL     1       2.350   5.571   0.000  0.00  0.00    +0.025 A 
ATOM      9  C   UNL     1       3.100   6.870   0.000  0.00  0.00    +0.029 A 
ATOM     10  C   UNL     1       2.350   8.169   0.000  0.00  0.00    +0.067 A 
ATOM     11  N   UNL     1       2.814   9.596   0.000  0.00  0.00    -0.337 N 
ATOM     12  H   UNL     1       4.241  10.059   0.000  0.00  0.00    +0.167 HD
ATOM     13  C   UNL     1       1.601  10.477   0.000  0.00  0.00    +0.158 A 
ATOM     19  N   UNL     1       0.387   9.596   0.000  0.00  0.00    -0.226 NA
ATOM     20  C   UNL     1       0.851   8.169   0.000  0.00  0.00    +0.091 A 
ATOM     21  C   UNL     1       0.101   6.870   0.000  0.00  0.00    +0.053 A 
ENDROOT
BRANCH  13  14
ATOM     14  C   UNL     1       1.601  11.977   0.000  0.00  0.00    +0.113 A 
ATOM     15  N   UNL     1       2.814  12.859   0.000  0.00  0.00    -0.244 NA
ATOM     16  C   UNL     1       2.350  14.286   0.000  0.00  0.00    +0.156 A 
ATOM     17  S   UNL     1       0.851  14.286   0.000  0.00  0.00    -0.083 S 
ATOM     18  C   UNL     1       0.387  12.859   0.000  0.00  0.00    +0.078 A 
ENDBRANCH  13  14
BRANCH   7   5
ATOM      4  C   UNL     1      -1.400   4.272   0.000  0.00  0.00    +0.405 C 
ATOM      5  N   UNL     1       0.101   4.272   0.000  0.00  0.00    -0.251 N 
ATOM      6  H   UNL     1       0.593   3.420   0.000  0.00  0.00    +0.158 HD
ATOM     22  O   UNL     1      -2.150   5.571   0.000  0.00  0.00    -0.226 OA
BRANCH   4   1
ATOM      1  O   UNL     1      -2.150   2.973   0.000  0.00  0.00    -0.450 OA
BRANCH   1   2
ATOM      2  C   UNL     1      -3.650   2.973   0.000  0.00  0.00    +0.230 C 
ATOM      3  C   UNL     1      -4.399   4.272   0.000  0.00  0.00    +0.048 C 
ENDBRANCH   1   2
ENDBRANCH   4   1
ENDBRANCH   7   5
TORSDOF 4