REMARK  Name = 339316
REMARK  5 active torsions:
REMARK  status: ('A' for Active; 'I' for Inactive)
REMARK    1  A    between atoms: N_1  and  C_10
REMARK    2  A    between atoms: C_10  and  N_14
REMARK    3  A    between atoms: N_11  and  N_14
REMARK    4  A    between atoms: C_12  and  C_15
REMARK    5  A    between atoms: C_12  and  C_21
REMARK                            x       y       z     vdW  Elec       q    Type
REMARK                         _______ _______ _______ _____ _____    ______ ____
ROOT
ATOM      2  C   UNL     1      -3.527  -5.552   0.000  0.00  0.00    +0.153 C 
ATOM     14  S   UNL     1      -2.776  -6.850   0.000  0.00  0.00    -0.017 S 
ENDROOT
BRANCH   2   1
ATOM      1  N   UNL     1      -2.778  -4.252   0.000  0.00  0.00    -0.311 N 
ATOM     15  C   UNL     1      -3.625  -3.014   0.000  0.00  0.00    +0.110 C 
ATOM     16  C   UNL     1      -3.184  -1.580   0.000  0.00  0.00    +0.006 C 
ATOM     17  C   UNL     1      -2.439  -2.987   0.000  0.00  0.00    +0.005 C 
ATOM     18  C   UNL     1      -1.009  -1.855   0.000  0.00  0.00    +0.005 C 
ATOM     19  C   UNL     1      -0.263  -3.262   0.000  0.00  0.00    +0.006 C 
ATOM     20  C   UNL     1      -0.488  -1.779   0.000  0.00  0.00    +0.005 C 
ATOM     21  C   UNL     1      -1.788  -1.030   0.000  0.00  0.00    +0.005 C 
ATOM     22  C   UNL     1      -1.282  -4.362   0.000  0.00  0.00    +0.110 C 
ENDBRANCH   2   1
BRANCH   2   3
ATOM      3  N   UNL     1      -5.027  -5.553   0.000  0.00  0.00    -0.218 N 
ATOM      4  H   UNL     1      -5.520  -4.701   0.000  0.00  0.00    +0.176 HD
BRANCH   3   5
ATOM      5  N   UNL     1      -5.776  -6.853   0.000  0.00  0.00    -0.184 NA
ATOM      6  C   UNL     1      -7.276  -6.855   0.000  0.00  0.00    +0.083 C 
ATOM      7  C   UNL     1      -8.024  -8.155   0.000  0.00  0.00    +0.069 C 
BRANCH   6   8
ATOM      8  C   UNL     1      -8.027  -5.557   0.000  0.00  0.00    +0.104 A 
ATOM      9  N   UNL     1      -9.527  -5.558   0.000  0.00  0.00    -0.251 NA
ATOM     10  C   UNL     1     -10.278  -4.260   0.000  0.00  0.00    +0.131 A 
ATOM     11  C   UNL     1      -9.530  -2.960   0.000  0.00  0.00    +0.130 A 
ATOM     12  N   UNL     1      -8.030  -2.959   0.000  0.00  0.00    -0.260 NA
ATOM     13  C   UNL     1      -7.278  -4.257   0.000  0.00  0.00    +0.140 A 
ENDBRANCH   6   8
ENDBRANCH   3   5
ENDBRANCH   2   3
TORSDOF 4