REMARK  Name = 25673
REMARK  5 active torsions:
REMARK  status: ('A' for Active; 'I' for Inactive)
REMARK    1  A    between atoms: C_8  and  C_10
REMARK    2  A    between atoms: C_12  and  C_19
REMARK    3  A    between atoms: C_19  and  O_21
REMARK    4  A    between atoms: O_21  and  C_22
REMARK    5  A    between atoms: C_22  and  C_23
REMARK                            x       y       z     vdW  Elec       q    Type
REMARK                         _______ _______ _______ _____ _____    ______ ____
ROOT
ATOM      1 CL   UNL     1      -8.770  -8.930   0.000  0.00  0.00    -0.083 Cl
ATOM      2  C   UNL     1      -7.471  -8.180   0.000  0.00  0.00    +0.043 A 
ATOM      3  C   UNL     1      -6.172  -8.930   0.000  0.00  0.00    +0.031 A 
ATOM      4  C   UNL     1      -4.873  -8.180   0.000  0.00  0.00    +0.017 A 
ATOM      5  C   UNL     1      -4.873  -6.680   0.000  0.00  0.00    +0.091 A 
ATOM      6  C   UNL     1      -6.172  -5.930   0.000  0.00  0.00    +0.068 A 
ATOM      7 CL   UNL     1      -6.172  -4.430   0.000  0.00  0.00    -0.081 Cl
ATOM      8  N   UNL     1      -3.574  -5.930   0.000  0.00  0.00    -0.245 NA
ATOM      9  C   UNL     1      -2.275  -6.680   0.000  0.00  0.00    +0.074 A 
ATOM     10  C   UNL     1      -2.275  -8.180   0.000  0.00  0.00    +0.044 A 
ATOM     17  C   UNL     1      -3.574  -8.930   0.000  0.00  0.00    +0.070 A 
ATOM     23  C   UNL     1      -7.471  -6.680   0.000  0.00  0.00    +0.042 A 
ENDROOT
BRANCH   9  11
ATOM     11  C   UNL     1      -0.976  -5.930   0.000  0.00  0.00    +0.018 A 
ATOM     12  C   UNL     1      -0.976  -4.430   0.000  0.00  0.00    +0.120 A 
ATOM     13  N   UNL     1       0.323  -3.680   0.000  0.00  0.00    -0.263 NA
ATOM     14  C   UNL     1       1.622  -4.430   0.000  0.00  0.00    +0.111 A 
ATOM     15  C   UNL     1       1.622  -5.930   0.000  0.00  0.00    +0.020 A 
ATOM     16  C   UNL     1       0.323  -6.680   0.000  0.00  0.00    +0.013 A 
ENDBRANCH   9  11
BRANCH  17  18
ATOM     18  C   UNL     1      -3.574 -10.430   0.000  0.00  0.00    +0.340 C 
ATOM     22  O   UNL     1      -4.873 -11.180   0.000  0.00  0.00    -0.245 OA
BRANCH  18  19
ATOM     19  O   UNL     1      -2.275 -11.180   0.000  0.00  0.00    -0.461 OA
BRANCH  19  20
ATOM     20  C   UNL     1      -0.976 -10.430   0.000  0.00  0.00    +0.229 C 
ATOM     21  C   UNL     1       0.323 -11.180   0.000  0.00  0.00    +0.048 C 
ENDBRANCH  19  20
ENDBRANCH  18  19
ENDBRANCH  17  18
TORSDOF 4