REMARK  Name = 34769
REMARK  5 active torsions:
REMARK  status: ('A' for Active; 'I' for Inactive)
REMARK    1  A    between atoms: C_5  and  C_8
REMARK    2  A    between atoms: C_6  and  C_11
REMARK    3  A    between atoms: C_11  and  C_12
REMARK    4  A    between atoms: C_12  and  O_14
REMARK    5  A    between atoms: O_14  and  C_15
REMARK                            x       y       z     vdW  Elec       q    Type
REMARK                         _______ _______ _______ _____ _____    ______ ____
ROOT
ATOM      1 CL   UNL     1      -9.269  -0.459   0.000  0.00  0.00    -0.043 Cl
ATOM      2  C   UNL     1      -8.388   0.755   0.000  0.00  0.00    +0.202 A 
ATOM      3  N   UNL     1      -6.888   0.755   0.000  0.00  0.00    -0.331 N 
ATOM      4  H   UNL     1      -6.006  -0.459   0.000  0.00  0.00    +0.168 HD
ATOM      5  C   UNL     1      -6.424   2.182   0.000  0.00  0.00    +0.060 A 
ATOM     11  C   UNL     1      -7.638   3.063   0.000  0.00  0.00    +0.148 A 
ATOM     17  N   UNL     1      -8.851   2.182   0.000  0.00  0.00    -0.213 NA
ENDROOT
BRANCH  11  12
ATOM     12  C   UNL     1      -7.638   4.563   0.000  0.00  0.00    +0.262 C 
ATOM     13  N   UNL     1      -6.339   5.313   0.000  0.00  0.00    -0.324 N 
ATOM     14  H   UNL     1      -6.339   6.298   0.000  0.00  0.00    +0.145 HD
ATOM     15  H   UNL     1      -5.486   4.821   0.000  0.00  0.00    +0.145 HD
ATOM     16  O   UNL     1      -8.937   5.313   0.000  0.00  0.00    -0.269 OA
ENDBRANCH  11  12
BRANCH   5   6
ATOM      6  C   UNL     1      -4.998   2.645   0.000  0.00  0.00    +0.176 C 
BRANCH   6   7
ATOM      7  C   UNL     1      -4.074   1.463   0.000  0.00  0.00    +0.313 C 
ATOM     10  O   UNL     1      -4.636   0.072   0.000  0.00  0.00    -0.250 OA
BRANCH   7   8
ATOM      8  O   UNL     1      -2.589   1.672   0.000  0.00  0.00    -0.468 OA
ATOM      9  C   UNL     1      -2.027   3.063   0.000  0.00  0.00    +0.280 C 
ENDBRANCH   7   8
ENDBRANCH   6   7
ENDBRANCH   5   6
TORSDOF 4