REMARK  Name = 36586
REMARK  4 active torsions:
REMARK  status: ('A' for Active; 'I' for Inactive)
REMARK    1  A    between atoms: C_5  and  O_18
REMARK    2  A    between atoms: C_10  and  C_11
REMARK    3  A    between atoms: C_14  and  O_20
REMARK    4  A    between atoms: C_16  and  O_19
REMARK                            x       y       z     vdW  Elec       q    Type
REMARK                         _______ _______ _______ _____ _____    ______ ____
ROOT
ATOM      1  O   UNL     1      -8.169  -0.649   0.000  0.00  0.00    -0.286 OA
ATOM      2  C   UNL     1      -8.169   0.851   0.000  0.00  0.00    +0.204 A 
ATOM      3  C   UNL     1      -6.870   1.601   0.000  0.00  0.00    +0.064 A 
ATOM     12  C   UNL     1      -6.870   3.100   0.000  0.00  0.00    +0.208 A 
ATOM     13  O   UNL     1      -8.169   3.850   0.000  0.00  0.00    -0.462 OA
ATOM     14  C   UNL     1      -9.468   3.100   0.000  0.00  0.00    +0.145 A 
ATOM     15  C   UNL     1     -10.767   3.850   0.000  0.00  0.00    +0.092 A 
ATOM     16  C   UNL     1     -12.066   3.100   0.000  0.00  0.00    +0.124 A 
ATOM     19  C   UNL     1     -12.066   1.601   0.000  0.00  0.00    +0.091 A 
ATOM     20  C   UNL     1     -10.767   0.851   0.000  0.00  0.00    +0.135 A 
ATOM     23  C   UNL     1      -9.468   1.601   0.000  0.00  0.00    +0.106 A 
ENDROOT
BRANCH   3   4
ATOM      4  C   UNL     1      -5.571   0.851   0.000  0.00  0.00    -0.011 A 
ATOM      5  C   UNL     1      -4.272   1.601   0.000  0.00  0.00    +0.012 A 
ATOM      6  C   UNL     1      -2.973   0.851   0.000  0.00  0.00    +0.046 A 
ATOM      7  C   UNL     1      -2.973  -0.649   0.000  0.00  0.00    +0.117 A 
ATOM     10  C   UNL     1      -4.272  -1.400   0.000  0.00  0.00    +0.046 A 
ATOM     11  C   UNL     1      -5.571  -0.649   0.000  0.00  0.00    +0.012 A 
BRANCH   7   8
ATOM      8  O   UNL     1      -1.674  -1.400   0.000  0.00  0.00    -0.507 OA
ATOM      9  H   UNL     1      -1.674  -2.336   0.000  0.00  0.00    +0.292 HD
ENDBRANCH   7   8
ENDBRANCH   3   4
BRANCH  16  17
ATOM     17  O   UNL     1     -13.365   3.850   0.000  0.00  0.00    -0.507 OA
ATOM     18  H   UNL     1     -13.365   4.787   0.000  0.00  0.00    +0.292 HD
ENDBRANCH  16  17
BRANCH  20  21
ATOM     21  O   UNL     1     -10.767  -0.649   0.000  0.00  0.00    -0.506 OA
ATOM     22  H   UNL     1     -11.579  -1.118   0.000  0.00  0.00    +0.292 HD
ENDBRANCH  20  21
TORSDOF 4