REMARK  Name = 303612
REMARK  2 active torsions:
REMARK  status: ('A' for Active; 'I' for Inactive)
REMARK    1  A    between atoms: N_8  and  C_23
REMARK    2  A    between atoms: C_11  and  C_23
REMARK                            x       y       z     vdW  Elec       q    Type
REMARK                         _______ _______ _______ _____ _____    ______ ____
ROOT
ATOM      1  C   UNL     1       2.324   2.525   0.000  0.00  0.00    +0.001 A 
ATOM      2  C   UNL     1       2.324   1.025   0.000  0.00  0.00    +0.002 A 
ATOM      3  C   UNL     1       3.623   0.275   0.000  0.00  0.00    +0.024 A 
ATOM      4  C   UNL     1       4.922   1.025   0.000  0.00  0.00    +0.048 A 
ATOM      5  N   UNL     1       6.221   0.275   0.000  0.00  0.00    -0.298 N 
ATOM     15  C   UNL     1       7.520   1.025   0.000  0.00  0.00    +0.048 A 
ATOM     16  C   UNL     1       8.819   0.275   0.000  0.00  0.00    +0.024 A 
ATOM     17  C   UNL     1      10.118   1.025   0.000  0.00  0.00    +0.002 A 
ATOM     18  C   UNL     1      10.118   2.525   0.000  0.00  0.00    +0.001 A 
ATOM     19  C   UNL     1       8.819   3.275   0.000  0.00  0.00    +0.017 A 
ATOM     20  C   UNL     1       7.520   2.525   0.000  0.00  0.00    +0.034 A 
ATOM     21  S   UNL     1       6.221   3.275   0.000  0.00  0.00    -0.086 S 
ATOM     22  C   UNL     1       4.922   2.525   0.000  0.00  0.00    +0.034 A 
ATOM     23  C   UNL     1       3.623   3.275   0.000  0.00  0.00    +0.017 A 
ENDROOT
BRANCH   5   6
ATOM      6  C   UNL     1       6.221  -1.226   0.000  0.00  0.00    +0.116 C 
BRANCH   6   7
ATOM      7  C   UNL     1       7.520  -1.976   0.000  0.00  0.00    +0.024 C 
ATOM      8  C   UNL     1       7.520  -3.475   0.000  0.00  0.00    +0.089 C 
ATOM      9  N   UNL     1       8.819  -4.226   0.000  0.00  0.00    -0.302 NA
ATOM     10  C   UNL     1      10.118  -3.475   0.000  0.00  0.00    +0.084 C 
ATOM     11  C   UNL     1      10.118  -1.976   0.000  0.00  0.00    +0.019 C 
ATOM     12  C   UNL     1       8.270  -3.275   0.000  0.00  0.00    +0.084 C 
ATOM     13  C   UNL     1       8.270  -2.176   0.000  0.00  0.00    +0.019 C 
ATOM     14  C   UNL     1       8.819  -1.226   0.000  0.00  0.00    -0.003 C 
ENDBRANCH   6   7
ENDBRANCH   5   6
TORSDOF 2