REMARK  Name = 378711
REMARK  3 active torsions:
REMARK  status: ('A' for Active; 'I' for Inactive)
REMARK    1  A    between atoms: C_1  and  N_2
REMARK    2  A    between atoms: C_1  and  N_17
REMARK    3  A    between atoms: C_8  and  C_18
REMARK                            x       y       z     vdW  Elec       q    Type
REMARK                         _______ _______ _______ _____ _____    ______ ____
ROOT
ATOM      2  N   UNL     1       5.799   3.175   0.000  0.00  0.00    -0.293 N 
ATOM      3  H   UNL     1       5.799   2.191   0.000  0.00  0.00    +0.151 HD
ATOM      4  C   UNL     1       7.098   3.925   0.000  0.00  0.00    +0.245 C 
ATOM      5  O   UNL     1       7.098   5.425   0.000  0.00  0.00    -0.270 OA
ENDROOT
BRANCH   4   6
ATOM      6  C   UNL     1       8.397   3.175   0.000  0.00  0.00    +0.037 A 
ATOM      7  C   UNL     1       8.397   1.675   0.000  0.00  0.00    +0.014 A 
ATOM      8  C   UNL     1       9.696   0.925   0.000  0.00  0.00    +0.021 A 
ATOM      9  C   UNL     1      10.995   1.675   0.000  0.00  0.00    +0.041 A 
ATOM     10  C   UNL     1      10.995   3.175   0.000  0.00  0.00    +0.021 A 
ATOM     11 CL   UNL     1      12.294   0.925   0.000  0.00  0.00    -0.084 Cl
ATOM     12  C   UNL     1       9.696   3.925   0.000  0.00  0.00    +0.014 A 
ENDBRANCH   4   6
BRANCH   2   1
ATOM      1  C   UNL     1       4.500   3.925   0.000  0.00  0.00    +0.089 C 
ATOM     19  C   UNL     1       3.536   5.074   0.000  0.00  0.00    +0.045 C 
ATOM     20  C   UNL     1       5.013   5.335   0.000  0.00  0.00    +0.045 C 
BRANCH   1  13
ATOM     13  N   UNL     1       3.536   2.776   0.000  0.00  0.00    -0.278 NA
ATOM     14  C   UNL     1       4.049   1.367   0.000  0.00  0.00    +0.114 C 
ATOM     15  C   UNL     1       3.085   0.218   0.000  0.00  0.00    +0.175 C 
ATOM     16  O   UNL     1       1.607   0.478   0.000  0.00  0.00    -0.377 OA
ATOM     17  C   UNL     1       1.094   1.888   0.000  0.00  0.00    +0.175 C 
ATOM     18  C   UNL     1       2.059   3.037   0.000  0.00  0.00    +0.114 C 
ENDBRANCH   1  13
ENDBRANCH   2   1
TORSDOF 3