REMARK  Name = 38983
REMARK  4 active torsions:
REMARK  status: ('A' for Active; 'I' for Inactive)
REMARK    1  A    between atoms: C_7  and  C_16
REMARK    2  A    between atoms: C_8  and  C_13
REMARK    3  A    between atoms: C_13  and  O_15
REMARK    4  A    between atoms: O_15  and  C_16
REMARK                            x       y       z     vdW  Elec       q    Type
REMARK                         _______ _______ _______ _____ _____    ______ ____
ROOT
ATOM      7  C   UNL     1       3.522   4.399   0.000  0.00  0.00    +0.348 C 
ATOM     16  O   UNL     1       3.522   5.899   0.000  0.00  0.00    -0.247 OA
ENDROOT
BRANCH   7   6
ATOM      1  O   UNL     1       0.924   4.399   0.000  0.00  0.00    -0.485 OA
ATOM      2  C   UNL     1      -0.375   3.650   0.000  0.00  0.00    +0.184 C 
ATOM      3  C   UNL     1      -0.375   2.150   0.000  0.00  0.00    +0.011 C 
ATOM      4  C   UNL     1       0.924   1.400   0.000  0.00  0.00    +0.034 C 
ATOM      5  C   UNL     1       2.223   2.150   0.000  0.00  0.00    +0.060 C 
ATOM      6  C   UNL     1       2.223   3.650   0.000  0.00  0.00    +0.281 C 
ENDBRANCH   7   6
BRANCH   7   8
ATOM      8  O   UNL     1       4.821   3.650   0.000  0.00  0.00    -0.458 OA
BRANCH   8   9
ATOM      9  C   UNL     1       6.120   4.399   0.000  0.00  0.00    +0.276 C 
BRANCH   9  10
ATOM     10  C   UNL     1       6.120   5.899   0.000  0.00  0.00    +0.210 C 
ATOM     11  C   UNL     1       7.419   6.649   0.000  0.00  0.00    +0.052 C 
ATOM     12  C   UNL     1       7.419   8.149   0.000  0.00  0.00    +0.034 C 
ATOM     13  C   UNL     1       6.120   8.899   0.000  0.00  0.00    +0.011 C 
ATOM     14  C   UNL     1       4.821   8.149   0.000  0.00  0.00    +0.183 C 
ATOM     15  O   UNL     1       4.821   6.649   0.000  0.00  0.00    -0.493 OA
ENDBRANCH   9  10
ENDBRANCH   8   9
ENDBRANCH   7   8
TORSDOF 4