REMARK  Name = 41066
REMARK  5 active torsions:
REMARK  status: ('A' for Active; 'I' for Inactive)
REMARK    1  A    between atoms: C_3  and  C_17
REMARK    2  A    between atoms: C_5  and  C_19
REMARK    3  A    between atoms: C_9  and  N_16
REMARK    4  A    between atoms: C_10  and  N_13
REMARK    5  A    between atoms: C_19  and  O_21
REMARK                            x       y       z     vdW  Elec       q    Type
REMARK                         _______ _______ _______ _____ _____    ______ ____
ROOT
ATOM      3  C   UNL     1      -4.647  -3.000   0.000  0.00  0.00    +0.249 C 
ATOM      4  O   UNL     1      -4.647  -1.500   0.000  0.00  0.00    -0.270 OA
ATOM      5  N   UNL     1      -5.946  -3.750   0.000  0.00  0.00    -0.276 N 
ATOM      6  H   UNL     1      -5.946  -4.734   0.000  0.00  0.00    +0.155 HD
ENDROOT
BRANCH   3   2
ATOM      1  C   UNL     1      -2.049  -3.000   0.000  0.00  0.00    +0.014 A 
ATOM      2  C   UNL     1      -3.348  -3.750   0.000  0.00  0.00    +0.051 A 
ATOM     16  C   UNL     1      -3.348  -5.250   0.000  0.00  0.00    +0.071 A 
ATOM     21  C   UNL     1      -2.049  -6.000   0.000  0.00  0.00    +0.016 A 
ATOM     22  C   UNL     1      -0.750  -5.250   0.000  0.00  0.00    +0.001 A 
ATOM     23  C   UNL     1      -0.750  -3.750   0.000  0.00  0.00    +0.001 A 
BRANCH  16  17
ATOM     17  C   UNL     1      -4.647  -6.000   0.000  0.00  0.00    +0.338 C 
ATOM     20  O   UNL     1      -5.946  -5.250   0.000  0.00  0.00    -0.245 OA
BRANCH  17  18
ATOM     18  O   UNL     1      -4.647  -7.500   0.000  0.00  0.00    -0.477 OA
ATOM     19  H   UNL     1      -5.459  -7.968   0.000  0.00  0.00    +0.295 HD
ENDBRANCH  17  18
ENDBRANCH  16  17
ENDBRANCH   3   2
BRANCH   5   7
ATOM      7  C   UNL     1      -7.245  -3.000   0.000  0.00  0.00    +0.112 A 
ATOM      8  C   UNL     1      -8.544  -3.750   0.000  0.00  0.00    +0.294 A 
ATOM     12  C   UNL     1      -9.843  -3.000   0.000  0.00  0.00    +0.086 A 
ATOM     13  C   UNL     1      -9.843  -1.500   0.000  0.00  0.00    +0.007 A 
ATOM     14  C   UNL     1      -8.544  -0.750   0.000  0.00  0.00    +0.002 A 
ATOM     15  C   UNL     1      -7.245  -1.500   0.000  0.00  0.00    +0.030 A 
BRANCH   8   9
ATOM      9  N   UNL     1      -8.544  -5.250   0.000  0.00  0.00    +0.082 N 
ATOM     10  O   UNL     1      -9.843  -6.000   0.000  0.00  0.00    +0.042 OA
ATOM     11  O   UNL     1      -7.245  -6.000   0.000  0.00  0.00    -0.576 OA
ENDBRANCH   8   9
ENDBRANCH   5   7
TORSDOF 5