REMARK  Name = 215585
REMARK  3 active torsions:
REMARK  status: ('A' for Active; 'I' for Inactive)
REMARK    1  A    between atoms: C_4  and  C_13
REMARK    2  A    between atoms: C_5  and  N_14
REMARK    3  A    between atoms: C_12  and  C_18
REMARK                            x       y       z     vdW  Elec       q    Type
REMARK                         _______ _______ _______ _____ _____    ______ ____
ROOT
ATOM      5  N   UNL     1      -1.009  -9.247   0.000  0.00  0.00    -0.269 N 
ATOM      6  H   UNL     1      -0.156  -9.740   0.000  0.00  0.00    +0.156 HD
ATOM      7  C   UNL     1      -1.009  -7.747   0.000  0.00  0.00    +0.309 C 
ATOM      8  N   UNL     1       0.290  -6.997   0.000  0.00  0.00    -0.251 N 
ATOM      9  H   UNL     1       1.143  -7.490   0.000  0.00  0.00    +0.158 HD
ATOM     10  C   UNL     1       0.290  -5.497   0.000  0.00  0.00    +0.169 A 
ATOM     11  C   UNL     1       1.504  -4.616   0.000  0.00  0.00    +0.091 A 
ATOM     12  C   UNL     1       1.040  -3.189   0.000  0.00  0.00    +0.136 A 
ATOM     13  C   UNL     1       1.922  -1.976   0.000  0.00  0.00    +0.089 C 
ATOM     14  O   UNL     1      -0.460  -3.189   0.000  0.00  0.00    -0.358 OA
ATOM     15  N   UNL     1      -0.923  -4.616   0.000  0.00  0.00    -0.063 NA
ATOM     16  O   UNL     1      -2.308  -6.997   0.000  0.00  0.00    -0.252 OA
ENDROOT
BRANCH   5   4
ATOM      1 CL   UNL     1      -3.607 -13.747   0.000  0.00  0.00    -0.083 Cl
ATOM      2  C   UNL     1      -3.607 -12.247   0.000  0.00  0.00    +0.043 A 
ATOM      3  C   UNL     1      -2.308 -11.497   0.000  0.00  0.00    +0.043 A 
ATOM      4  C   UNL     1      -2.308  -9.997   0.000  0.00  0.00    +0.039 A 
ATOM     17  C   UNL     1      -3.607  -9.247   0.000  0.00  0.00    -0.029 A 
ATOM     18  C   UNL     1      -3.607  -7.747   0.000  0.00  0.00    +0.045 C 
ATOM     19  C   UNL     1      -4.906  -9.997   0.000  0.00  0.00    +0.006 A 
ATOM     20  C   UNL     1      -4.906 -11.497   0.000  0.00  0.00    +0.020 A 
ENDBRANCH   5   4
TORSDOF 1