REMARK  Name = 338042
REMARK  5 active torsions:
REMARK  status: ('A' for Active; 'I' for Inactive)
REMARK    1  A    between atoms: C_4  and  C_17
REMARK    2  A    between atoms: C_6  and  N_23
REMARK    3  A    between atoms: C_7  and  C_9
REMARK    4  A    between atoms: C_12  and  N_24
REMARK    5  A    between atoms: C_13  and  C_25
REMARK                            x       y       z     vdW  Elec       q    Type
REMARK                         _______ _______ _______ _____ _____    ______ ____
ROOT
ATOM     11  N   UNL     1       7.520   2.525   0.000  0.00  0.00    -0.277 N 
ATOM     12  H   UNL     1       7.520   1.540   0.000  0.00  0.00    +0.155 HD
ATOM     13  C   UNL     1       8.819   3.275   0.000  0.00  0.00    +0.303 C 
ATOM     30  O   UNL     1       8.819   4.774   0.000  0.00  0.00    -0.265 OA
ENDROOT
BRANCH  11  10
ATOM      1  C   UNL     1       3.623   4.774   0.000  0.00  0.00    +0.001 A 
ATOM      2  C   UNL     1       3.623   3.275   0.000  0.00  0.00    +0.010 A 
ATOM      3  C   UNL     1       4.922   2.525   0.000  0.00  0.00    +0.003 A 
ATOM     10  C   UNL     1       6.221   3.275   0.000  0.00  0.00    +0.042 A 
ATOM     31  C   UNL     1       6.221   4.774   0.000  0.00  0.00    +0.024 A 
ATOM     32  C   UNL     1       4.922   5.524   0.000  0.00  0.00    +0.002 A 
BRANCH   3   4
ATOM      4  C   UNL     1       4.922   1.025   0.000  0.00  0.00    -0.016 A 
ATOM      5  C   UNL     1       3.623   0.275   0.000  0.00  0.00    +0.008 A 
ATOM      6  C   UNL     1       3.623  -1.226   0.000  0.00  0.00    +0.001 A 
ATOM      7  C   UNL     1       4.922  -1.976   0.000  0.00  0.00    +0.000 A 
ATOM      8  C   UNL     1       6.221  -1.226   0.000  0.00  0.00    +0.001 A 
ATOM      9  C   UNL     1       6.221   0.275   0.000  0.00  0.00    +0.008 A 
ENDBRANCH   3   4
ENDBRANCH  11  10
BRANCH  13  14
ATOM     14  C   UNL     1      10.118   2.525   0.000  0.00  0.00    +0.303 C 
ATOM     15  N   UNL     1      10.118   1.025   0.000  0.00  0.00    -0.277 N 
ATOM     16  H   UNL     1       9.265   0.532   0.000  0.00  0.00    +0.155 HD
ATOM     29  O   UNL     1      11.417   3.275   0.000  0.00  0.00    -0.265 OA
BRANCH  15  17
ATOM     17  C   UNL     1      11.417   0.275   0.000  0.00  0.00    +0.042 A 
ATOM     18  C   UNL     1      11.417  -1.226   0.000  0.00  0.00    +0.003 A 
ATOM     25  C   UNL     1      12.716  -1.976   0.000  0.00  0.00    +0.010 A 
ATOM     26  C   UNL     1      14.015  -1.226   0.000  0.00  0.00    +0.001 A 
ATOM     27  C   UNL     1      14.015   0.275   0.000  0.00  0.00    +0.002 A 
ATOM     28  C   UNL     1      12.716   1.025   0.000  0.00  0.00    +0.024 A 
BRANCH  18  19
ATOM     19  C   UNL     1      10.118  -1.976   0.000  0.00  0.00    -0.016 A 
ATOM     20  C   UNL     1       8.819  -1.226   0.000  0.00  0.00    +0.008 A 
ATOM     21  C   UNL     1       7.520  -1.976   0.000  0.00  0.00    +0.001 A 
ATOM     22  C   UNL     1       7.520  -3.475   0.000  0.00  0.00    +0.000 A 
ATOM     23  C   UNL     1       8.819  -4.226   0.000  0.00  0.00    +0.001 A 
ATOM     24  C   UNL     1      10.118  -3.475   0.000  0.00  0.00    +0.008 A 
ENDBRANCH  18  19
ENDBRANCH  15  17
ENDBRANCH  13  14
TORSDOF 5