REMARK  Name = 26112
REMARK  2 active torsions:
REMARK  status: ('A' for Active; 'I' for Inactive)
REMARK    1  A    between atoms: C_11  and  C_16
REMARK    2  A    between atoms: C_13  and  C_17
REMARK                            x       y       z     vdW  Elec       q    Type
REMARK                         _______ _______ _______ _____ _____    ______ ____
ROOT
ATOM      1 CL   UNL     1       6.388   0.938   0.000  0.00  0.00    -0.080 Cl
ATOM      2  C   UNL     1       5.506  -0.276   0.000  0.00  0.00    +0.080 C 
ATOM      3  C   UNL     1       4.006  -0.276   0.000  0.00  0.00    +0.080 C 
ATOM      4  C   UNL     1       3.543  -1.702   0.000  0.00  0.00    +0.069 C 
ATOM      5  C   UNL     1       4.756  -2.584   0.000  0.00  0.00    +0.015 C 
ATOM      6  C   UNL     1       4.756  -4.084   0.000  0.00  0.00    +0.018 C 
ATOM     14 CL   UNL     1       2.116  -2.166   0.000  0.00  0.00    -0.081 Cl
ATOM     15 CL   UNL     1       3.125   0.938   0.000  0.00  0.00    -0.080 Cl
ATOM     16  C   UNL     1       5.970  -1.702   0.000  0.00  0.00    +0.069 C 
ATOM     17 CL   UNL     1       7.397  -2.166   0.000  0.00  0.00    -0.081 Cl
ENDROOT
BRANCH   6   7
ATOM      7  C   UNL     1       3.457  -4.834   0.000  0.00  0.00    -0.024 A 
ATOM      8  C   UNL     1       2.158  -4.084   0.000  0.00  0.00    +0.008 A 
ATOM      9  C   UNL     1       0.859  -4.834   0.000  0.00  0.00    +0.004 A 
ATOM     10  C   UNL     1       0.859  -6.334   0.000  0.00  0.00    -0.050 A 
ATOM     11  C   UNL     1      -0.440  -7.084   0.000  0.00  0.00    +0.044 C 
ATOM     12  C   UNL     1       2.158  -7.084   0.000  0.00  0.00    +0.004 A 
ATOM     13  C   UNL     1       3.457  -6.334   0.000  0.00  0.00    +0.008 A 
ENDBRANCH   6   7
TORSDOF 1