REMARK  Name = 311723
REMARK  2 active torsions:
REMARK  status: ('A' for Active; 'I' for Inactive)
REMARK    1  A    between atoms: C_6  and  S_7
REMARK    2  A    between atoms: S_7  and  C_8
REMARK                            x       y       z     vdW  Elec       q    Type
REMARK                         _______ _______ _______ _____ _____    ______ ____
ROOT
ATOM      5  S   UNL     1       4.647   0.750   0.000  0.00  0.00    -0.030 S 
ENDROOT
BRANCH   5   4
ATOM      1  C   UNL     1       0.750   3.000   0.000  0.00  0.00    +0.020 A 
ATOM      2  C   UNL     1       0.750   1.500   0.000  0.00  0.00    +0.112 A 
ATOM      3  N   UNL     1       2.049   0.750   0.000  0.00  0.00    -0.248 NA
ATOM      4  C   UNL     1       3.348   1.500   0.000  0.00  0.00    +0.104 A 
ATOM     12  C   UNL     1       3.348   3.000   0.000  0.00  0.00    +0.035 A 
ATOM     13  C   UNL     1       2.049   3.750   0.000  0.00  0.00    +0.004 A 
ENDBRANCH   5   4
BRANCH   5   6
ATOM      6  C   UNL     1       5.946   1.500   0.000  0.00  0.00    +0.194 A 
ATOM      7  N   UNL     1       7.245   0.750   0.000  0.00  0.00    -0.230 NA
ATOM      8  C   UNL     1       8.544   1.500   0.000  0.00  0.00    +0.115 A 
ATOM      9  C   UNL     1       8.544   3.000   0.000  0.00  0.00    +0.039 A 
ATOM     10  C   UNL     1       7.245   3.750   0.000  0.00  0.00    +0.115 A 
ATOM     11  N   UNL     1       5.946   3.000   0.000  0.00  0.00    -0.230 NA
ENDBRANCH   5   6
TORSDOF 2