REMARK  Name = 380802
REMARK  5 active torsions:
REMARK  status: ('A' for Active; 'I' for Inactive)
REMARK    1  A    between atoms: C_4  and  N_24
REMARK    2  A    between atoms: C_5  and  C_23
REMARK    3  A    between atoms: C_7  and  C_10
REMARK    4  A    between atoms: N_16  and  C_17
REMARK    5  A    between atoms: C_22  and  C_27
REMARK                            x       y       z     vdW  Elec       q    Type
REMARK                         _______ _______ _______ _____ _____    ______ ____
ROOT
ATOM      9  C   UNL     1      -5.471 -10.025   0.000  0.00  0.00    +0.376 C 
ATOM     10  N   UNL     1      -4.172 -10.775   0.000  0.00  0.00    +0.183 NA
ATOM     11  O   UNL     1      -2.873 -10.025   0.000  0.00  0.00    -0.152 OA
ATOM     12  N   UNL     1      -2.873  -8.524   0.000  0.00  0.00    -0.096 N 
ATOM     20  C   UNL     1      -4.172  -7.774   0.000  0.00  0.00    +0.338 C 
ATOM     21  C   UNL     1      -4.172  -6.274   0.000  0.00  0.00    +0.046 C 
ATOM     22  C   UNL     1      -5.471  -5.524   0.000  0.00  0.00    +0.008 C 
ATOM     23  C   UNL     1      -6.770  -6.274   0.000  0.00  0.00    -0.013 C 
ATOM     24  C   UNL     1      -8.069  -5.524   0.000  0.00  0.00    +0.047 C 
ATOM     25  C   UNL     1      -6.770  -7.774   0.000  0.00  0.00    +0.196 C 
ATOM     26  N   UNL     1      -5.471  -8.524   0.000  0.00  0.00    -0.162 N 
ENDROOT
BRANCH  12  13
ATOM     13  C   UNL     1      -1.574  -7.774   0.000  0.00  0.00    +0.173 A 
ATOM     14  N   UNL     1      -0.275  -8.524   0.000  0.00  0.00    -0.235 NA
ATOM     15  C   UNL     1       1.025  -7.774   0.000  0.00  0.00    +0.116 A 
ATOM     16  C   UNL     1       1.025  -6.274   0.000  0.00  0.00    -0.032 A 
ATOM     17  C   UNL     1       2.324  -5.524   0.000  0.00  0.00    +0.045 C 
ATOM     18  C   UNL     1      -0.275  -5.524   0.000  0.00  0.00    +0.008 A 
ATOM     19  C   UNL     1      -1.574  -6.274   0.000  0.00  0.00    +0.050 A 
ENDBRANCH  12  13
BRANCH   9   8
ATOM      1  C   UNL     1      -9.368 -10.775   0.000  0.00  0.00    +0.007 A 
ATOM      2  C   UNL     1      -9.368 -12.275   0.000  0.00  0.00    +0.084 A 
ATOM      3  C   UNL     1      -8.069 -13.025   0.000  0.00  0.00    +0.274 A 
ATOM      7  C   UNL     1      -6.770 -12.275   0.000  0.00  0.00    +0.100 A 
ATOM      8  C   UNL     1      -6.770 -10.775   0.000  0.00  0.00    +0.077 A 
ATOM     27  C   UNL     1      -8.069 -10.025   0.000  0.00  0.00    +0.016 A 
BRANCH   3   4
ATOM      4  N   UNL     1      -8.069 -14.525   0.000  0.00  0.00    +0.080 N 
ATOM      5  O   UNL     1      -6.770 -15.275   0.000  0.00  0.00    +0.041 OA
ATOM      6  O   UNL     1      -9.368 -15.275   0.000  0.00  0.00    -0.576 OA
ENDBRANCH   3   4
ENDBRANCH   9   8
TORSDOF 3