REMARK  Name = 292923
REMARK  2 active torsions:
REMARK  status: ('A' for Active; 'I' for Inactive)
REMARK    1  A    between atoms: C_9  and  C_10
REMARK    2  A    between atoms: C_16  and  N_23
REMARK                            x       y       z     vdW  Elec       q    Type
REMARK                         _______ _______ _______ _____ _____    ______ ____
ROOT
ATOM      6  C   UNL     1       3.630   4.462   0.000  0.00  0.00    +0.249 C 
ATOM      7  N   UNL     1       4.929   5.212   0.000  0.00  0.00    -0.281 N 
ATOM      8  H   UNL     1       5.781   4.719   0.000  0.00  0.00    +0.155 HD
ATOM     19  O   UNL     1       3.630   2.962   0.000  0.00  0.00    -0.270 OA
ENDROOT
BRANCH   6   5
ATOM      1  C   UNL     1      -0.772   9.086   0.000  0.00  0.00    +0.466 C 
ATOM      2  O   UNL     1       0.720   8.929   0.000  0.00  0.00    -0.453 OA
ATOM      3  C   UNL     1       1.032   7.462   0.000  0.00  0.00    +0.167 A 
ATOM      4  C   UNL     1       2.330   6.712   0.000  0.00  0.00    +0.063 A 
ATOM      5  C   UNL     1       2.330   5.212   0.000  0.00  0.00    +0.055 A 
ATOM     20  C   UNL     1       1.032   4.462   0.000  0.00  0.00    +0.034 A 
ATOM     21 BR   UNL     1       1.032   2.962   0.000  0.00  0.00    -0.049 Br
ATOM     22  C   UNL     1      -0.268   5.212   0.000  0.00  0.00    +0.065 A 
ATOM     23  C   UNL     1      -0.268   6.712   0.000  0.00  0.00    +0.167 A 
ATOM     24  O   UNL     1      -1.382   7.715   0.000  0.00  0.00    -0.453 OA
ENDBRANCH   6   5
BRANCH   7   9
ATOM      9  C   UNL     1       4.929   6.712   0.000  0.00  0.00    +0.041 A 
ATOM     10  C   UNL     1       6.228   7.462   0.000  0.00  0.00    +0.003 A 
ATOM     11  C   UNL     1       7.527   6.712   0.000  0.00  0.00    +0.010 A 
ATOM     12  C   UNL     1       8.826   7.462   0.000  0.00  0.00    +0.001 A 
ATOM     13  C   UNL     1       8.826   8.961   0.000  0.00  0.00    +0.001 A 
ATOM     14  C   UNL     1       7.527   9.711   0.000  0.00  0.00    +0.008 A 
ATOM     15  C   UNL     1       6.228   8.961   0.000  0.00  0.00    -0.016 A 
ATOM     16  C   UNL     1       4.929   9.711   0.000  0.00  0.00    +0.008 A 
ATOM     17  C   UNL     1       3.630   8.961   0.000  0.00  0.00    +0.002 A 
ATOM     18  C   UNL     1       3.630   7.462   0.000  0.00  0.00    +0.024 A 
ENDBRANCH   7   9
TORSDOF 2