REMARK  Name = 379639
REMARK  1 active torsions:
REMARK  status: ('A' for Active; 'I' for Inactive)
REMARK    1  A    between atoms: C_14  and  C_16
REMARK                            x       y       z     vdW  Elec       q    Type
REMARK                         _______ _______ _______ _____ _____    ______ ____
ROOT
ATOM      1  C   UNL     1       1.674   1.400   0.000  0.00  0.00    +0.021 A 
ATOM      2  C   UNL     1       1.674  -0.101   0.000  0.00  0.00    +0.004 A 
ATOM      3  C   UNL     1       2.973  -0.851   0.000  0.00  0.00    +0.029 A 
ATOM      4  C   UNL     1       4.272  -0.101   0.000  0.00  0.00    +0.081 A 
ATOM      5  N   UNL     1       5.571  -0.851   0.000  0.00  0.00    -0.193 N 
ATOM      6  N   UNL     1       5.883  -2.318   0.000  0.00  0.00    -0.058 NA
ATOM      7  N   UNL     1       7.375  -2.474   0.000  0.00  0.00    -0.116 NA
ATOM      8  C   UNL     1       7.985  -1.104   0.000  0.00  0.00    +0.208 A 
ATOM     11  C   UNL     1       6.870  -0.101   0.000  0.00  0.00    +0.196 A 
ATOM     12  N   UNL     1       6.870   1.400   0.000  0.00  0.00    -0.210 NA
ATOM     13  C   UNL     1       5.571   2.150   0.000  0.00  0.00    +0.129 A 
ATOM     14  N   UNL     1       5.571   3.650   0.000  0.00  0.00    -0.343 N 
ATOM     15  H   UNL     1       4.719   4.142   0.000  0.00  0.00    +0.144 HD
ATOM     16  H   UNL     1       6.424   4.142   0.000  0.00  0.00    +0.144 HD
ATOM     17  C   UNL     1       4.272   1.400   0.000  0.00  0.00    +0.058 A 
ATOM     18  C   UNL     1       2.973   2.150   0.000  0.00  0.00    +0.053 A 
ATOM     19 CL   UNL     1       2.973   3.650   0.000  0.00  0.00    -0.083 Cl
ENDROOT
BRANCH   8   9
ATOM      9  C   UNL     1       9.452  -0.792   0.000  0.00  0.00    +0.125 C 
ATOM     10  N   UNL     1      10.919  -0.480   0.000  0.00  0.00    -0.189 NA
ENDBRANCH   8   9
TORSDOF 1