REMARK  Name = 245091
REMARK  1 active torsions:
REMARK  status: ('A' for Active; 'I' for Inactive)
REMARK    1  A    between atoms: C_20  and  C_21
REMARK                            x       y       z     vdW  Elec       q    Type
REMARK                         _______ _______ _______ _____ _____    ______ ____
ROOT
ATOM      1  C   UNL     1       1.400   0.924   0.000  0.00  0.00    -0.001 C 
ATOM      2  C   UNL     1       2.150  -0.375   0.000  0.00  0.00    -0.001 C 
ATOM      3  C   UNL     1       3.617  -0.063   0.000  0.00  0.00    +0.014 C 
ATOM      4  C   UNL     1       3.773   1.429   0.000  0.00  0.00    +0.136 C 
ATOM      5  C   UNL     1       5.274   1.429   0.000  0.00  0.00    +0.107 C 
ATOM      6  C   UNL     1       5.274  -0.071   0.000  0.00  0.00    +0.039 C 
ATOM      7  C   UNL     1       6.573  -0.821   0.000  0.00  0.00    +0.014 C 
ATOM      8  C   UNL     1       7.872  -0.071   0.000  0.00  0.00    -0.008 C 
ATOM      9  C   UNL     1       8.028  -1.563   0.000  0.00  0.00    -0.021 C 
ATOM     10  C   UNL     1       9.496  -1.875   0.000  0.00  0.00    +0.006 C 
ATOM     11  C   UNL     1      10.246  -0.576   0.000  0.00  0.00    +0.115 C 
ATOM     12  C   UNL     1      11.616  -1.186   0.000  0.00  0.00    +0.158 C 
ATOM     19  O   UNL     1      11.459   0.306   0.000  0.00  0.00    -0.360 OA
ATOM     20  C   UNL     1       9.242   0.539   0.000  0.00  0.00    +0.053 C 
ATOM     21  C   UNL     1       7.872   1.429   0.000  0.00  0.00    +0.014 C 
ATOM     22  C   UNL     1       6.573   2.179   0.000  0.00  0.00    +0.039 C 
ATOM     23  O   UNL     1       4.524   2.728   0.000  0.00  0.00    -0.352 OA
ATOM     24  C   UNL     1       2.403   2.039   0.000  0.00  0.00    +0.014 C 
ENDROOT
BRANCH  12  13
ATOM     13  C   UNL     1      12.498  -2.400   0.000  0.00  0.00    +0.021 C 
ATOM     14  C   UNL     1      13.989  -2.243   0.000  0.00  0.00    +0.006 C 
ATOM     15  C   UNL     1      14.871  -3.456   0.000  0.00  0.00    +0.000 C 
ATOM     16  C   UNL     1      14.261  -4.827   0.000  0.00  0.00    +0.000 C 
ATOM     17  C   UNL     1      12.769  -4.983   0.000  0.00  0.00    +0.000 C 
ATOM     18  C   UNL     1      11.887  -3.770   0.000  0.00  0.00    +0.006 C 
ENDBRANCH  12  13
TORSDOF 1