REMARK  Name = 34210
REMARK  8 active torsions:
REMARK  status: ('A' for Active; 'I' for Inactive)
REMARK    1  A    between atoms: C_1  and  C_2
REMARK    2  A    between atoms: C_1  and  C_3
REMARK    3  A    between atoms: C_1  and  N_5
REMARK    4  A    between atoms: C_2  and  C_4
REMARK    5  A    between atoms: C_6  and  C_8
REMARK    6  A    between atoms: C_8  and  C_9
REMARK    7  A    between atoms: C_9  and  C_10
REMARK    8  A    between atoms: C_9  and  C_11
REMARK                            x       y       z     vdW  Elec       q    Type
REMARK                         _______ _______ _______ _____ _____    ______ ____
ROOT
ATOM      2  N   UNL     1       4.774   3.623   0.000  0.00  0.00    -0.313 N 
ATOM      3  H   UNL     1       5.267   2.770   0.000  0.00  0.00    +0.149 HD
ATOM      4  C   UNL     1       3.275   3.623   0.000  0.00  0.00    +0.213 C 
ATOM      9  O   UNL     1       2.525   4.922   0.000  0.00  0.00    -0.276 OA
ENDROOT
BRANCH   2   1
ATOM      1  C   UNL     1       5.524   4.922   0.000  0.00  0.00    +0.070 C 
ATOM     10  C   UNL     1       7.024   4.922   0.000  0.00  0.00    +0.028 C 
BRANCH   1  11
ATOM     11  C   UNL     1       4.774   6.221   0.000  0.00  0.00    +0.018 C 
ATOM     12  C   UNL     1       3.275   6.221   0.000  0.00  0.00    +0.005 C 
ENDBRANCH   1  11
ENDBRANCH   2   1
BRANCH   4   5
ATOM      5  C   UNL     1       2.525   2.324   0.000  0.00  0.00    +0.098 C 
BRANCH   5   6
ATOM      6  C   UNL     1       1.025   2.324   0.000  0.00  0.00    -0.008 C 
ATOM      7  C   UNL     1       0.275   1.025   0.000  0.00  0.00    +0.008 C 
ATOM      8  C   UNL     1       0.275   3.623   0.000  0.00  0.00    +0.008 C 
ENDBRANCH   5   6
ENDBRANCH   4   5
TORSDOF 4