REMARK  Name = 281383
REMARK  4 active torsions:
REMARK  status: ('A' for Active; 'I' for Inactive)
REMARK    1  A    between atoms: O_1  and  C_3
REMARK    2  A    between atoms: O_1  and  C_20
REMARK    3  A    between atoms: C_5  and  N_22
REMARK    4  A    between atoms: C_20  and  C_21
REMARK                            x       y       z     vdW  Elec       q    Type
REMARK                         _______ _______ _______ _____ _____    ______ ____
ROOT
ATOM      7  C   UNL     1       5.946   1.685   0.000  0.00  0.00    +0.038 A 
ATOM      8  C   UNL     1       7.245   0.935   0.000  0.00  0.00    +0.040 A 
ATOM      9  C   UNL     1       8.544   1.685   0.000  0.00  0.00    +0.043 A 
ATOM     10  S   UNL     1       9.971   1.222   0.000  0.00  0.00    -0.052 S 
ATOM     11  C   UNL     1      10.852   2.435   0.000  0.00  0.00    +0.162 A 
ATOM     12  N   UNL     1      12.352   2.435   0.000  0.00  0.00    -0.310 N 
ATOM     13  C   UNL     1      13.003   1.084   0.000  0.00  0.00    +0.107 C 
ATOM     14  C   UNL     1      14.466   0.750   0.000  0.00  0.00    +0.019 C 
ATOM     15  C   UNL     1      15.639   1.685   0.000  0.00  0.00    +0.002 C 
ATOM     16  C   UNL     1      15.639   3.185   0.000  0.00  0.00    +0.002 C 
ATOM     17  C   UNL     1      14.466   4.120   0.000  0.00  0.00    +0.019 C 
ATOM     18  C   UNL     1      13.003   3.787   0.000  0.00  0.00    +0.107 C 
ATOM     19  N   UNL     1       9.971   3.649   0.000  0.00  0.00    -0.225 NA
ATOM     20  C   UNL     1       8.544   3.185   0.000  0.00  0.00    +0.080 A 
ATOM     21  C   UNL     1       7.245   3.935   0.000  0.00  0.00    +0.031 A 
ATOM     22  C   UNL     1       5.946   3.185   0.000  0.00  0.00    +0.025 A 
ENDROOT
BRANCH   7   5
ATOM      4  C   UNL     1       3.348   1.685   0.000  0.00  0.00    +0.405 C 
ATOM      5  N   UNL     1       4.647   0.935   0.000  0.00  0.00    -0.251 N 
ATOM      6  H   UNL     1       4.647  -0.049   0.000  0.00  0.00    +0.158 HD
ATOM     23  O   UNL     1       3.348   3.185   0.000  0.00  0.00    -0.226 OA
BRANCH   4   1
ATOM      1  O   UNL     1       2.049   0.935   0.000  0.00  0.00    -0.450 OA
BRANCH   1   2
ATOM      2  C   UNL     1       0.750   1.685   0.000  0.00  0.00    +0.230 C 
ATOM      3  C   UNL     1       0.750   3.185   0.000  0.00  0.00    +0.048 C 
ENDBRANCH   1   2
ENDBRANCH   4   1
ENDBRANCH   7   5
TORSDOF 3