REMARK  Name = 41378
REMARK  4 active torsions:
REMARK  status: ('A' for Active; 'I' for Inactive)
REMARK    1  A    between atoms: C_4  and  AS_15
REMARK    2  A    between atoms: C_10  and  AS_15
REMARK    3  A    between atoms: C_13  and  N_14
REMARK    4  A    between atoms: AS_15  and  O_16
REMARK                            x       y       z     vdW  Elec       q    Type
REMARK                         _______ _______ _______ _____ _____    ______ ____
ROOT
ATOM      1  O   UNL     1       2.123   6.824   0.000  0.00  0.00    +0.000 OA
ATOM      2 AS   UNL     1       2.873   5.524   0.000  0.00  0.00    +0.000 As
ENDROOT
BRANCH   2   5
ATOM      5  C   UNL     1       1.574   4.774   0.000  0.00  0.00    +0.000 A 
ATOM      6  C   UNL     1       1.574   3.275   0.000  0.00  0.00    +0.000 A 
ATOM      7  C   UNL     1       0.275   2.525   0.000  0.00  0.00    +0.000 A 
ATOM     11  C   UNL     1      -1.025   3.275   0.000  0.00  0.00    +0.000 A 
ATOM     12  C   UNL     1      -1.025   4.774   0.000  0.00  0.00    +0.000 A 
ATOM     13  C   UNL     1       0.275   5.524   0.000  0.00  0.00    +0.000 A 
BRANCH   7   8
ATOM      8  N   UNL     1       0.275   1.025   0.000  0.00  0.00    +0.000 N 
ATOM      9  H   UNL     1       1.127   0.532   0.000  0.00  0.00    +0.000 HD
ATOM     10  H   UNL     1      -0.578   0.532   0.000  0.00  0.00    +0.000 HD
ENDBRANCH   7   8
ENDBRANCH   2   5
BRANCH   2  14
ATOM     14  C   UNL     1       4.172   6.274   0.000  0.00  0.00    +0.000 A 
ATOM     15  C   UNL     1       5.471   5.524   0.000  0.00  0.00    +0.000 A 
ATOM     16  C   UNL     1       6.770   6.274   0.000  0.00  0.00    +0.000 A 
ATOM     17  C   UNL     1       6.770   7.774   0.000  0.00  0.00    +0.000 A 
ATOM     18  C   UNL     1       5.471   8.524   0.000  0.00  0.00    +0.000 A 
ATOM     19  C   UNL     1       4.172   7.774   0.000  0.00  0.00    +0.000 A 
ENDBRANCH   2  14
BRANCH   2   3
ATOM      3  O   UNL     1       3.623   4.226   0.000  0.00  0.00    +0.000 OA
ATOM      4  H   UNL     1       3.138   3.385   0.000  0.00  0.00    +0.000 HD
ENDBRANCH   2   3
TORSDOF 4