REMARK  Name = 40500
REMARK  6 active torsions:
REMARK  status: ('A' for Active; 'I' for Inactive)
REMARK    1  A    between atoms: N_1  and  C_17
REMARK    2  A    between atoms: C_6  and  C_17
REMARK    3  A    between atoms: C_7  and  O_13
REMARK    4  A    between atoms: C_9  and  O_15
REMARK    5  A    between atoms: O_13  and  C_14
REMARK    6  A    between atoms: O_15  and  C_16
REMARK                            x       y       z     vdW  Elec       q    Type
REMARK                         _______ _______ _______ _____ _____    ______ ____
ROOT
ATOM      3  C   UNL     1      -1.949  -6.232   0.000  0.00  0.00    -0.026 A 
ATOM      4  C   UNL     1      -1.949  -7.732   0.000  0.00  0.00    +0.009 A 
ATOM      5  C   UNL     1      -3.248  -8.482   0.000  0.00  0.00    +0.050 A 
ATOM      6  C   UNL     1      -4.547  -7.732   0.000  0.00  0.00    +0.162 A 
ATOM      9  C   UNL     1      -4.547  -6.232   0.000  0.00  0.00    +0.162 A 
ATOM     12  C   UNL     1      -3.248  -5.482   0.000  0.00  0.00    +0.054 A 
ENDROOT
BRANCH   6   7
ATOM      7  O   UNL     1      -5.846  -8.482   0.000  0.00  0.00    -0.491 OA
ATOM      8  C   UNL     1      -7.145  -7.732   0.000  0.00  0.00    +0.277 C 
ENDBRANCH   6   7
BRANCH   9  10
ATOM     10  O   UNL     1      -5.846  -5.482   0.000  0.00  0.00    -0.491 OA
ATOM     11  C   UNL     1      -7.145  -6.232   0.000  0.00  0.00    +0.277 C 
ENDBRANCH   9  10
BRANCH   3   2
ATOM      2  C   UNL     1      -0.649  -5.482   0.000  0.00  0.00    +0.146 C 
BRANCH   2   1
ATOM      1  N   UNL     1      -0.649  -3.982   0.000  0.00  0.00    -0.260 N 
ATOM     13  C   UNL     1       0.564  -3.101   0.000  0.00  0.00    +0.152 C 
ATOM     14  C   UNL     1       0.101  -1.674   0.000  0.00  0.00    +0.253 C 
ATOM     15  O   UNL     1      -1.400  -1.674   0.000  0.00  0.00    -0.449 OA
ATOM     16  C   UNL     1      -1.863  -3.101   0.000  0.00  0.00    +0.403 C 
ATOM     17  O   UNL     1      -3.290  -3.564   0.000  0.00  0.00    -0.226 OA
ENDBRANCH   2   1
ENDBRANCH   3   2
TORSDOF 4