REMARK  Name = 284234
REMARK  5 active torsions:
REMARK  status: ('A' for Active; 'I' for Inactive)
REMARK    1  A    between atoms: C_8  and  O_9
REMARK    2  A    between atoms: O_9  and  C_10
REMARK    3  A    between atoms: C_10  and  C_12
REMARK    4  A    between atoms: C_17  and  O_18
REMARK    5  A    between atoms: O_18  and  C_19
REMARK                            x       y       z     vdW  Elec       q    Type
REMARK                         _______ _______ _______ _____ _____    ______ ____
ROOT
ATOM      8  C   UNL     1       4.399   6.870   0.000  0.00  0.00    +0.345 C 
ATOM     17  O   UNL     1       3.650   8.169   0.000  0.00  0.00    -0.245 OA
ENDROOT
BRANCH   8   9
ATOM      9  C   UNL     1       5.899   6.870   0.000  0.00  0.00    +0.060 A 
ATOM     10  C   UNL     1       6.649   5.571   0.000  0.00  0.00    +0.018 A 
ATOM     11  C   UNL     1       8.149   5.571   0.000  0.00  0.00    +0.046 A 
ATOM     12  C   UNL     1       8.899   6.870   0.000  0.00  0.00    +0.120 A 
ATOM     15  C   UNL     1       8.149   8.169   0.000  0.00  0.00    +0.046 A 
ATOM     16  C   UNL     1       6.649   8.169   0.000  0.00  0.00    +0.018 A 
BRANCH  12  13
ATOM     13  O   UNL     1      10.400   6.870   0.000  0.00  0.00    -0.495 OA
ATOM     14  C   UNL     1      11.150   8.169   0.000  0.00  0.00    +0.277 C 
ENDBRANCH  12  13
ENDBRANCH   8   9
BRANCH   8   7
ATOM      7  O   UNL     1       3.650   5.571   0.000  0.00  0.00    -0.417 OA
BRANCH   7   6
ATOM      1  C   UNL     1      -0.851   5.571   0.000  0.00  0.00    +0.086 A 
ATOM      2  N   UNL     1      -0.101   4.272   0.000  0.00  0.00    -0.326 N 
ATOM      3  H   UNL     1      -0.851   2.973   0.000  0.00  0.00    +0.168 HD
ATOM      4  C   UNL     1       1.400   4.272   0.000  0.00  0.00    +0.291 A 
ATOM      5  O   UNL     1       2.150   2.973   0.000  0.00  0.00    -0.264 OA
ATOM      6  C   UNL     1       2.150   5.571   0.000  0.00  0.00    +0.196 A 
ATOM     18  C   UNL     1       1.400   6.870   0.000  0.00  0.00    +0.053 A 
ATOM     19  C   UNL     1      -0.101   6.870   0.000  0.00  0.00    +0.021 A 
ENDBRANCH   7   6
ENDBRANCH   8   7
TORSDOF 4