REMARK  Name = 40669
REMARK  3 active torsions:
REMARK  status: ('A' for Active; 'I' for Inactive)
REMARK    1  A    between atoms: N_6  and  C_13
REMARK    2  A    between atoms: C_13  and  C_14
REMARK    3  A    between atoms: C_14  and  C_15
REMARK                            x       y       z     vdW  Elec       q    Type
REMARK                         _______ _______ _______ _____ _____    ______ ____
ROOT
ATOM      1  N   UNL     1      -9.358   1.537   0.000  0.00  0.00    -0.207 NA
ATOM      2  C   UNL     1      -8.059   2.287   0.000  0.00  0.00    +0.140 A 
ATOM      3  C   UNL     1      -6.760   1.537   0.000  0.00  0.00    +0.139 A 
ATOM      4  C   UNL     1      -6.760   0.037   0.000  0.00  0.00    +0.143 A 
ATOM      5  N   UNL     1      -5.334  -0.426   0.000  0.00  0.00    -0.316 N 
ATOM      9  C   UNL     1      -4.452   0.787   0.000  0.00  0.00    +0.201 A 
ATOM     10  N   UNL     1      -8.059  -0.713   0.000  0.00  0.00    -0.312 N 
ATOM     11  H   UNL     1      -8.059  -2.213   0.000  0.00  0.00    +0.170 HD
ATOM     12  N   UNL     1      -5.334   2.001   0.000  0.00  0.00    -0.231 NA
ATOM     13  S   UNL     1      -8.059   3.787   0.000  0.00  0.00    -0.028 S 
ATOM     14  C   UNL     1      -9.358   0.037   0.000  0.00  0.00    +0.193 A 
ATOM     15  N   UNL     1     -10.658  -0.713   0.000  0.00  0.00    -0.329 N 
ATOM     16  H   UNL     1     -10.657  -1.697   0.000  0.00  0.00    +0.145 HD
ATOM     17  H   UNL     1     -11.510  -0.221   0.000  0.00  0.00    +0.145 HD
ENDROOT
BRANCH   5   6
ATOM      6  C   UNL     1      -4.870  -1.853   0.000  0.00  0.00    +0.124 C 
BRANCH   6   7
ATOM      7  C   UNL     1      -3.403  -2.165   0.000  0.00  0.00    +0.018 C 
ATOM      8  C   UNL     1      -2.939  -3.591   0.000  0.00  0.00    +0.005 C 
ENDBRANCH   6   7
ENDBRANCH   5   6
TORSDOF 2