REMARK  Name = 343557
REMARK  3 active torsions:
REMARK  status: ('A' for Active; 'I' for Inactive)
REMARK    1  A    between atoms: C_5  and  C_7
REMARK    2  A    between atoms: C_6  and  N_17
REMARK    3  A    between atoms: C_9  and  N_18
REMARK                            x       y       z     vdW  Elec       q    Type
REMARK                         _______ _______ _______ _____ _____    ______ ____
ROOT
ATOM      9  C   UNL     1       5.250   3.348   0.000  0.00  0.00    +0.250 C 
ATOM     10  N   UNL     1       6.000   2.049   0.000  0.00  0.00    -0.280 N 
ATOM     11  H   UNL     1       5.508   1.196   0.000  0.00  0.00    +0.155 HD
ATOM     20  O   UNL     1       6.000   4.647   0.000  0.00  0.00    -0.270 OA
ENDROOT
BRANCH  10  12
ATOM     12  C   UNL     1       7.500   2.049   0.000  0.00  0.00    +0.052 A 
ATOM     13  C   UNL     1       8.250   0.750   0.000  0.00  0.00    +0.026 A 
ATOM     14  C   UNL     1       9.750   0.750   0.000  0.00  0.00    +0.022 A 
ATOM     15  C   UNL     1      10.500   2.049   0.000  0.00  0.00    +0.042 A 
ATOM     16 CL   UNL     1      12.000   2.049   0.000  0.00  0.00    -0.083 Cl
ATOM     17  C   UNL     1       9.750   3.348   0.000  0.00  0.00    +0.041 A 
ATOM     18  C   UNL     1       8.250   3.348   0.000  0.00  0.00    +0.064 A 
ATOM     19 CL   UNL     1       7.500   4.647   0.000  0.00  0.00    -0.082 Cl
ENDBRANCH  10  12
BRANCH   9   8
ATOM      1  C   UNL     1       1.500   4.647   0.000  0.00  0.00    +0.001 A 
ATOM      2  C   UNL     1       0.750   3.348   0.000  0.00  0.00    +0.002 A 
ATOM      3  C   UNL     1       1.500   2.049   0.000  0.00  0.00    +0.023 A 
ATOM      4  C   UNL     1       3.000   2.049   0.000  0.00  0.00    +0.037 A 
ATOM      8  C   UNL     1       3.750   3.348   0.000  0.00  0.00    +0.058 A 
ATOM     21  C   UNL     1       3.000   4.647   0.000  0.00  0.00    +0.015 A 
BRANCH   4   5
ATOM      5  N   UNL     1       3.750   0.750   0.000  0.00  0.00    -0.357 N 
ATOM      6  H   UNL     1       4.734   0.750   0.000  0.00  0.00    +0.142 HD
ATOM      7  H   UNL     1       3.258  -0.103   0.000  0.00  0.00    +0.142 HD
ENDBRANCH   4   5
ENDBRANCH   9   8
TORSDOF 3