REMARK  Name = 338578
REMARK  4 active torsions:
REMARK  status: ('A' for Active; 'I' for Inactive)
REMARK    1  A    between atoms: C_6  and  C_7
REMARK    2  A    between atoms: C_9  and  N_23
REMARK    3  A    between atoms: C_14  and  N_24
REMARK    4  A    between atoms: C_15  and  C_17
REMARK                            x       y       z     vdW  Elec       q    Type
REMARK                         _______ _______ _______ _____ _____    ______ ____
ROOT
ATOM      8  C   UNL     1       7.500   2.049   0.000  0.00  0.00    +0.034 A 
ATOM      9  C   UNL     1       8.250   0.750   0.000  0.00  0.00    +0.025 A 
ATOM     10  C   UNL     1       9.750   0.750   0.000  0.00  0.00    +0.025 A 
ATOM     11  C   UNL     1      10.500   2.049   0.000  0.00  0.00    +0.034 A 
ATOM     22  C   UNL     1       9.750   3.348   0.000  0.00  0.00    +0.025 A 
ATOM     23  C   UNL     1       8.250   3.348   0.000  0.00  0.00    +0.025 A 
ENDROOT
BRANCH   8   6
ATOM      5  C   UNL     1       5.250   3.348   0.000  0.00  0.00    +0.248 C 
ATOM      6  N   UNL     1       6.000   2.049   0.000  0.00  0.00    -0.282 N 
ATOM      7  H   UNL     1       5.508   1.196   0.000  0.00  0.00    +0.155 HD
ATOM     24  O   UNL     1       6.000   4.647   0.000  0.00  0.00    -0.270 OA
BRANCH   5   4
ATOM      1  N   UNL     1       0.750   3.348   0.000  0.00  0.00    -0.263 NA
ATOM      2  C   UNL     1       1.500   2.049   0.000  0.00  0.00    +0.111 A 
ATOM      3  C   UNL     1       3.000   2.049   0.000  0.00  0.00    +0.033 A 
ATOM      4  C   UNL     1       3.750   3.348   0.000  0.00  0.00    +0.040 A 
ATOM     25  C   UNL     1       3.000   4.647   0.000  0.00  0.00    +0.033 A 
ATOM     26  C   UNL     1       1.500   4.647   0.000  0.00  0.00    +0.111 A 
ENDBRANCH   5   4
ENDBRANCH   8   6
BRANCH  11  12
ATOM     12  N   UNL     1      12.000   2.049   0.000  0.00  0.00    -0.282 N 
ATOM     13  H   UNL     1      12.492   1.196   0.000  0.00  0.00    +0.155 HD
ATOM     14  C   UNL     1      12.750   3.348   0.000  0.00  0.00    +0.248 C 
ATOM     21  O   UNL     1      12.000   4.647   0.000  0.00  0.00    -0.270 OA
BRANCH  14  15
ATOM     15  C   UNL     1      14.250   3.348   0.000  0.00  0.00    +0.040 A 
ATOM     16  C   UNL     1      15.000   2.049   0.000  0.00  0.00    +0.033 A 
ATOM     17  C   UNL     1      16.500   2.049   0.000  0.00  0.00    +0.111 A 
ATOM     18  N   UNL     1      17.250   3.348   0.000  0.00  0.00    -0.263 NA
ATOM     19  C   UNL     1      16.500   4.647   0.000  0.00  0.00    +0.111 A 
ATOM     20  C   UNL     1      15.000   4.647   0.000  0.00  0.00    +0.033 A 
ENDBRANCH  14  15
ENDBRANCH  11  12
TORSDOF 4