REMARK  Name = 339630
REMARK  7 active torsions:
REMARK  status: ('A' for Active; 'I' for Inactive)
REMARK    1  A    between atoms: C_8  and  C_14
REMARK    2  A    between atoms: N_9  and  C_10
REMARK    3  A    between atoms: C_10  and  C_11
REMARK    4  A    between atoms: C_10  and  C_12
REMARK    5  A    between atoms: C_10  and  C_13
REMARK    6  A    between atoms: C_20  and  S_21
REMARK    7  A    between atoms: S_21  and  O_24
REMARK                            x       y       z     vdW  Elec       q    Type
REMARK                         _______ _______ _______ _____ _____    ______ ____
ROOT
ATOM      1  C   UNL     1       2.609 -14.971   0.000  0.00  0.00    +0.228 C 
ATOM      2  S   UNL     1       2.276 -13.508   0.000  0.00  0.00    +0.077 S 
ATOM      5  O   UNL     1       0.813 -13.842   0.000  0.00  0.00    -0.148 OA
ATOM      6  O   UNL     1       3.738 -13.174   0.000  0.00  0.00    -0.148 OA
ENDROOT
BRANCH   2   3
ATOM      3  O   UNL     1       1.942 -12.046   0.000  0.00  0.00    -0.254 OA
ATOM      4  H   UNL     1       2.653 -11.386   0.000  0.00  0.00    +0.244 HD
ENDBRANCH   2   3
TORSDOF 1