REMARK  Name = 331208
REMARK  1 active torsions:
REMARK  status: ('A' for Active; 'I' for Inactive)
REMARK    1  A    between atoms: C_7  and  N_13
REMARK                            x       y       z     vdW  Elec       q    Type
REMARK                         _______ _______ _______ _____ _____    ______ ____
ROOT
ATOM      1  C   UNL     1       0.189  -4.436   0.000  0.00  0.00    +0.217 A 
ATOM      2  N   UNL     1      -0.823  -6.189   0.000  0.00  0.00    -0.284 N 
ATOM      3  H   UNL     1      -0.331  -7.042   0.000  0.00  0.00    +0.155 HD
ATOM     10  N   UNL     1       1.681  -4.279   0.000  0.00  0.00    -0.245 N 
ATOM     11  H   UNL     1       2.685  -5.394   0.000  0.00  0.00    +0.192 HD
ATOM     12  N   UNL     1       1.993  -2.812   0.000  0.00  0.00    -0.135 NA
ATOM     13  C   UNL     1       0.694  -2.062   0.000  0.00  0.00    +0.233 A 
ATOM     14  N   UNL     1       0.537  -0.570   0.000  0.00  0.00    -0.326 N 
ATOM     15  H   UNL     1      -0.362  -0.169   0.000  0.00  0.00    +0.145 HD
ATOM     16  H   UNL     1       1.333   0.009   0.000  0.00  0.00    +0.145 HD
ATOM     17  N   UNL     1      -0.421  -3.065   0.000  0.00  0.00    -0.180 NA
ENDROOT
BRANCH   2   4
ATOM      4  C   UNL     1      -2.848  -6.189   0.000  0.00  0.00    +0.034 A 
ATOM      5  C   UNL     1      -2.098  -7.488   0.000  0.00  0.00    +0.023 A 
ATOM      6  C   UNL     1      -0.598  -7.488   0.000  0.00  0.00    +0.002 A 
ATOM      7  C   UNL     1       0.152  -6.189   0.000  0.00  0.00    +0.000 A 
ATOM      8  C   UNL     1      -0.598  -4.890   0.000  0.00  0.00    +0.002 A 
ATOM      9  C   UNL     1      -2.098  -4.890   0.000  0.00  0.00    +0.023 A 
ENDBRANCH   2   4
TORSDOF 1