REMARK  Name = 217306
REMARK  8 active torsions:
REMARK  status: ('A' for Active; 'I' for Inactive)
REMARK    1  A    between atoms: C_1  and  C_20
REMARK    2  A    between atoms: C_2  and  C_21
REMARK    3  A    between atoms: C_4  and  O_12
REMARK    4  A    between atoms: C_10  and  O_16
REMARK    5  A    between atoms: O_12  and  C_13
REMARK    6  A    between atoms: C_13  and  C_15
REMARK    7  A    between atoms: O_16  and  C_17
REMARK    8  A    between atoms: C_17  and  C_19
REMARK                            x       y       z     vdW  Elec       q    Type
REMARK                         _______ _______ _______ _____ _____    ______ ____
ROOT
ATOM      1  C   UNL     1      -2.049   6.750   0.000  0.00  0.00    +0.100 C 
ATOM      2  C   UNL     1      -1.299   8.049   0.000  0.00  0.00    +0.045 C 
ATOM      3  O   UNL     1      -0.750   6.000   0.000  0.00  0.00    -0.361 OA
ATOM      4  C   UNL     1      -2.049   5.250   0.000  0.00  0.00    +0.100 C 
ATOM      5  C   UNL     1      -1.299   3.951   0.000  0.00  0.00    +0.045 C 
ATOM      6  C   UNL     1      -3.348   4.500   0.000  0.00  0.00    +0.077 C 
ATOM      7  C   UNL     1      -4.647   5.250   0.000  0.00  0.00    +0.005 A 
ATOM      8  C   UNL     1      -5.946   4.500   0.000  0.00  0.00    +0.135 A 
ATOM     13  C   UNL     1      -7.245   5.250   0.000  0.00  0.00    +0.050 A 
ATOM     14  C   UNL     1      -7.245   6.750   0.000  0.00  0.00    +0.050 A 
ATOM     15  C   UNL     1      -5.946   7.500   0.000  0.00  0.00    +0.135 A 
ATOM     20  C   UNL     1      -4.647   6.750   0.000  0.00  0.00    +0.005 A 
ATOM     21  C   UNL     1      -3.348   7.500   0.000  0.00  0.00    +0.077 C 
ENDROOT
BRANCH   8   9
ATOM      9  O   UNL     1      -5.946   3.000   0.000  0.00  0.00    -0.426 OA
BRANCH   9  10
ATOM     10  C   UNL     1      -7.245   2.250   0.000  0.00  0.00    +0.309 C 
ATOM     11  C   UNL     1      -7.245   0.750   0.000  0.00  0.00    +0.136 C 
ATOM     12  O   UNL     1      -8.544   3.000   0.000  0.00  0.00    -0.251 OA
ENDBRANCH   9  10
ENDBRANCH   8   9
BRANCH  15  16
ATOM     16  O   UNL     1      -5.946   9.000   0.000  0.00  0.00    -0.426 OA
BRANCH  16  17
ATOM     17  C   UNL     1      -7.245   9.750   0.000  0.00  0.00    +0.309 C 
ATOM     18  C   UNL     1      -7.245  11.250   0.000  0.00  0.00    +0.136 C 
ATOM     19  O   UNL     1      -8.544   9.000   0.000  0.00  0.00    -0.251 OA
ENDBRANCH  16  17
ENDBRANCH  15  16
TORSDOF 4