REMARK  Name = 369066
REMARK  3 active torsions:
REMARK  status: ('A' for Active; 'I' for Inactive)
REMARK    1  A    between atoms: C_7  and  N_8
REMARK    2  A    between atoms: C_11  and  C_12
REMARK    3  A    between atoms: C_16  and  N_18
REMARK                            x       y       z     vdW  Elec       q    Type
REMARK                         _______ _______ _______ _____ _____    ______ ____
ROOT
ATOM      1  C   UNL     1       0.750   5.397   0.000  0.00  0.00    +0.116 A 
ATOM      2  C   UNL     1       0.750   3.897   0.000  0.00  0.00    +0.038 A 
ATOM      3  C   UNL     1       2.049   3.147   0.000  0.00  0.00    +0.098 A 
ATOM      4  N   UNL     1       3.348   3.897   0.000  0.00  0.00    -0.265 N 
ATOM      5  C   UNL     1       4.775   3.434   0.000  0.00  0.00    +0.210 A 
ATOM      8  C   UNL     1       5.656   4.647   0.000  0.00  0.00    +0.121 A 
ATOM     18  N   UNL     1       4.775   5.861   0.000  0.00  0.00    -0.208 NA
ATOM     19  C   UNL     1       3.348   5.397   0.000  0.00  0.00    +0.237 A 
ATOM     20  N   UNL     1       2.049   6.147   0.000  0.00  0.00    -0.220 NA
ENDROOT
BRANCH   8   9
ATOM      9  C   UNL     1       7.156   4.647   0.000  0.00  0.00    +0.011 A 
ATOM     10  C   UNL     1       7.906   3.348   0.000  0.00  0.00    +0.094 A 
ATOM     11  C   UNL     1       9.406   3.348   0.000  0.00  0.00    +0.274 A 
ATOM     15  C   UNL     1      10.156   4.647   0.000  0.00  0.00    +0.084 A 
ATOM     16  C   UNL     1       9.406   5.946   0.000  0.00  0.00    +0.007 A 
ATOM     17  C   UNL     1       7.906   5.946   0.000  0.00  0.00    +0.010 A 
BRANCH  11  12
ATOM     12  N   UNL     1      10.156   2.049   0.000  0.00  0.00    +0.080 N 
ATOM     13  O   UNL     1       9.406   0.750   0.000  0.00  0.00    +0.041 OA
ATOM     14  O   UNL     1      11.656   2.049   0.000  0.00  0.00    -0.576 OA
ENDBRANCH  11  12
ENDBRANCH   8   9
BRANCH   5   6
ATOM      6  N   UNL     1       5.238   2.007   0.000  0.00  0.00    -0.010 NA
ATOM      7  O   UNL     1       6.705   1.695   0.000  0.00  0.00    -0.142 OA
ENDBRANCH   5   6
TORSDOF 3