REMARK  Name = 269904
REMARK  7 active torsions:
REMARK  status: ('A' for Active; 'I' for Inactive)
REMARK    1  A    between atoms: C_2  and  C_14
REMARK    2  A    between atoms: N_4  and  C_18
REMARK    3  A    between atoms: C_5  and  C_17
REMARK    4  A    between atoms: C_6  and  C_18
REMARK    5  A    between atoms: C_14  and  C_15
REMARK    6  A    between atoms: C_14  and  C_16
REMARK    7  A    between atoms: C_17  and  O_19
REMARK                            x       y       z     vdW  Elec       q    Type
REMARK                         _______ _______ _______ _____ _____    ______ ____
ROOT
ATOM      1  N   UNL     1      -3.269  -1.319   0.000  0.00  0.00    -0.240 NA
ATOM      2  C   UNL     1      -2.189  -2.360   0.000  0.00  0.00    +0.136 A 
ATOM      3  C   UNL     1      -0.865  -1.655   0.000  0.00  0.00    +0.064 A 
ATOM      7  N   UNL     1      -1.127  -0.178   0.000  0.00  0.00    -0.325 N 
ATOM     17  C   UNL     1      -2.612   0.030   0.000  0.00  0.00    +0.113 A 
ENDROOT
BRANCH  17  18
ATOM     18  C   UNL     1      -3.317   1.353   0.000  0.00  0.00    +0.049 C 
ATOM     19  C   UNL     1      -2.523   2.626   0.000  0.00  0.00    +0.015 C 
ATOM     20  C   UNL     1      -4.817   1.405   0.000  0.00  0.00    +0.015 C 
ENDBRANCH  17  18
BRANCH   3   4
ATOM      4  C   UNL     1       0.349  -2.536   0.000  0.00  0.00    +0.210 C 
BRANCH   4   5
ATOM      5  O   UNL     1       0.193  -4.028   0.000  0.00  0.00    -0.389 OA
ATOM      6  H   UNL     1      -0.693  -4.423   0.000  0.00  0.00    +0.210 HD
ENDBRANCH   4   5
ENDBRANCH   3   4
BRANCH   7   8
ATOM      8  C   UNL     1      -0.086   0.901   0.000  0.00  0.00    +0.161 C 
BRANCH   8   9
ATOM      9  C   UNL     1       1.411   0.798   0.000  0.00  0.00    +0.009 A 
ATOM     10  C   UNL     1       2.069  -0.550   0.000  0.00  0.00    +0.047 A 
ATOM     11  C   UNL     1       3.566  -0.653   0.000  0.00  0.00    +0.020 A 
ATOM     12  C   UNL     1       4.404   0.591   0.000  0.00  0.00    +0.003 A 
ATOM     13  C   UNL     1       3.745   1.938   0.000  0.00  0.00    +0.020 A 
ATOM     14 CL   UNL     1       1.231  -1.794   0.000  0.00  0.00    -0.083 Cl
ATOM     15  C   UNL     1       2.249   2.042   0.000  0.00  0.00    +0.047 A 
ATOM     16 CL   UNL     1       1.590   3.390   0.000  0.00  0.00    -0.083 Cl
ENDBRANCH   8   9
ENDBRANCH   7   8
TORSDOF 5