REMARK  Name = 271923
REMARK  9 active torsions:
REMARK  status: ('A' for Active; 'I' for Inactive)
REMARK    1  A    between atoms: C_2  and  C_10
REMARK    2  A    between atoms: C_7  and  N_14
REMARK    3  A    between atoms: C_8  and  C_17
REMARK    4  A    between atoms: C_10  and  N_12
REMARK    5  A    between atoms: C_11  and  N_12
REMARK    6  A    between atoms: C_11  and  C_18
REMARK    7  A    between atoms: C_11  and  C_19
REMARK    8  A    between atoms: C_20  and  S_21
REMARK    9  A    between atoms: S_21  and  O_24
REMARK                            x       y       z     vdW  Elec       q    Type
REMARK                         _______ _______ _______ _____ _____    ______ ____
ROOT
ATOM      1  C   UNL     1       8.544   8.799   0.000  0.00  0.00    +0.228 C 
ATOM      2  S   UNL     1       7.245   8.049   0.000  0.00  0.00    +0.077 S 
ATOM      5  O   UNL     1       5.946   7.299   0.000  0.00  0.00    -0.148 OA
ATOM      6  O   UNL     1       7.995   6.750   0.000  0.00  0.00    -0.148 OA
ENDROOT
BRANCH   2   3
ATOM      3  O   UNL     1       6.495   9.348   0.000  0.00  0.00    -0.254 OA
ATOM      4  H   UNL     1       6.980  10.188   0.000  0.00  0.00    +0.244 HD
ENDBRANCH   2   3
TORSDOF 1