REMARK  Name = 228155
REMARK  3 active torsions:
REMARK  status: ('A' for Active; 'I' for Inactive)
REMARK    1  A    between atoms: C_5  and  S_6
REMARK    2  A    between atoms: S_6  and  C_7
REMARK    3  A    between atoms: C_9  and  N_18
REMARK                            x       y       z     vdW  Elec       q    Type
REMARK                         _______ _______ _______ _____ _____    ______ ____
ROOT
ATOM      5  C   UNL     1      -1.674  -5.899   0.000  0.00  0.00    +0.050 A 
ATOM      6  C   UNL     1      -0.375  -6.649   0.000  0.00  0.00    +0.155 A 
ATOM      7  N   UNL     1       1.052  -6.186   0.000  0.00  0.00    -0.048 NA
ATOM      8  O   UNL     1       1.933  -7.399   0.000  0.00  0.00    -0.241 OA
ATOM      9  N   UNL     1       1.052  -8.613   0.000  0.00  0.00    -0.042 NA
ATOM     10  C   UNL     1      -0.375  -8.149   0.000  0.00  0.00    +0.212 A 
ATOM     11  C   UNL     1      -1.674  -8.899   0.000  0.00  0.00    +0.304 A 
ATOM     15  C   UNL     1      -2.973  -8.149   0.000  0.00  0.00    +0.088 A 
ATOM     16  C   UNL     1      -2.973  -6.649   0.000  0.00  0.00    +0.024 A 
ENDROOT
BRANCH  11  12
ATOM     12  N   UNL     1      -1.674 -10.400   0.000  0.00  0.00    +0.082 N 
ATOM     13  O   UNL     1      -0.375 -11.150   0.000  0.00  0.00    +0.042 OA
ATOM     14  O   UNL     1      -2.973 -11.150   0.000  0.00  0.00    -0.576 OA
ENDBRANCH  11  12
BRANCH   5   4
ATOM      4  S   UNL     1      -1.674  -4.399   0.000  0.00  0.00    -0.017 S 
BRANCH   4   3
ATOM      1  C   UNL     1       2.294  -4.338   0.000  0.00  0.00    +0.013 A 
ATOM      2  C   UNL     1       0.885  -4.851   0.000  0.00  0.00    +0.088 A 
ATOM      3  C   UNL     1      -0.265  -3.886   0.000  0.00  0.00    +0.259 A 
ATOM     17  N   UNL     1      -0.004  -2.409   0.000  0.00  0.00    -0.165 N 
ATOM     18  O   UNL     1      -1.153  -1.445   0.000  0.00  0.00    -0.619 OA
ATOM     19  C   UNL     1       1.406  -1.896   0.000  0.00  0.00    +0.323 A 
ATOM     20  C   UNL     1       2.555  -2.860   0.000  0.00  0.00    +0.071 A 
ENDBRANCH   4   3
ENDBRANCH   5   4
TORSDOF 3