REMARK  Name = 373427
REMARK  6 active torsions:
REMARK  status: ('A' for Active; 'I' for Inactive)
REMARK    1  A    between atoms: C_1  and  N_11
REMARK    2  A    between atoms: C_2  and  N_12
REMARK    3  A    between atoms: C_6  and  S_7
REMARK    4  A    between atoms: S_7  and  N_10
REMARK    5  A    between atoms: N_10  and  C_15
REMARK    6  A    between atoms: N_10  and  C_16
REMARK                            x       y       z     vdW  Elec       q    Type
REMARK                         _______ _______ _______ _____ _____    ______ ____
ROOT
ATOM      1  C   UNL     1       3.650  -0.375   0.000  0.00  0.00    +0.103 A 
ATOM      5  C   UNL     1       4.399  -1.674   0.000  0.00  0.00    +0.031 A 
ATOM      6  C   UNL     1       5.899  -1.674   0.000  0.00  0.00    +0.031 A 
ATOM      7  C   UNL     1       6.649  -0.375   0.000  0.00  0.00    +0.112 A 
ATOM     14  C   UNL     1       5.899   0.924   0.000  0.00  0.00    +0.114 A 
ATOM     15  C   UNL     1       4.399   0.924   0.000  0.00  0.00    +0.295 A 
ENDROOT
BRANCH   1   2
ATOM      2  N   UNL     1       2.150  -0.375   0.000  0.00  0.00    -0.353 N 
ATOM      3  H   UNL     1       1.657  -1.228   0.000  0.00  0.00    +0.143 HD
ATOM      4  H   UNL     1       1.657   0.478   0.000  0.00  0.00    +0.143 HD
ENDBRANCH   1   2
BRANCH   7   8
ATOM      8  S   UNL     1       8.149  -0.375   0.000  0.00  0.00    +0.061 S 
ATOM      9  O   UNL     1       8.149  -1.875   0.000  0.00  0.00    -0.153 OA
ATOM     13  O   UNL     1       8.149   1.125   0.000  0.00  0.00    -0.153 OA
BRANCH   8  10
ATOM     10  N   UNL     1       9.649  -0.375   0.000  0.00  0.00    -0.183 NA
ATOM     11  C   UNL     1      10.400  -1.674   0.000  0.00  0.00    +0.131 C 
ATOM     12  C   UNL     1      10.400   0.924   0.000  0.00  0.00    +0.131 C 
ENDBRANCH   8  10
ENDBRANCH   7   8
BRANCH  15  16
ATOM     16  N   UNL     1       3.650   2.223   0.000  0.00  0.00    +0.082 N 
ATOM     17  O   UNL     1       4.399   3.522   0.000  0.00  0.00    +0.042 OA
ATOM     18  O   UNL     1       2.150   2.223   0.000  0.00  0.00    -0.576 OA
ENDBRANCH  15  16
TORSDOF 4