REMARK  Name = 341196
REMARK  9 active torsions:
REMARK  status: ('A' for Active; 'I' for Inactive)
REMARK    1  A    between atoms: C_3  and  N_25
REMARK    2  A    between atoms: C_6  and  N_26
REMARK    3  A    between atoms: O_7  and  C_9
REMARK    4  A    between atoms: O_7  and  C_27
REMARK    5  A    between atoms: C_12  and  C_13
REMARK    6  A    between atoms: C_16  and  O_19
REMARK    7  A    between atoms: C_18  and  N_29
REMARK    8  A    between atoms: O_19  and  C_28
REMARK    9  A    between atoms: C_22  and  N_30
REMARK                            x       y       z     vdW  Elec       q    Type
REMARK                         _______ _______ _______ _____ _____    ______ ____
ROOT
ATOM      9  C   UNL     1       4.500   4.647   0.000  0.00  0.00    +0.077 A 
ATOM     10  C   UNL     1       5.250   3.348   0.000  0.00  0.00    +0.142 A 
ATOM     11  C   UNL     1       6.750   3.348   0.000  0.00  0.00    +0.056 A 
ATOM     12  C   UNL     1       7.500   4.647   0.000  0.00  0.00    -0.014 A 
ATOM     30  C   UNL     1       6.750   5.946   0.000  0.00  0.00    +0.010 A 
ATOM     33  C   UNL     1       5.250   5.946   0.000  0.00  0.00    +0.027 A 
ENDROOT
BRANCH   9   7
ATOM      4  N   UNL     1       3.000   7.245   0.000  0.00  0.00    -0.296 N 
ATOM      5  H   UNL     1       3.984   7.245   0.000  0.00  0.00    +0.151 HD
ATOM      6  C   UNL     1       2.250   5.946   0.000  0.00  0.00    +0.304 C 
ATOM      7  N   UNL     1       3.000   4.647   0.000  0.00  0.00    -0.266 N 
ATOM      8  H   UNL     1       2.508   3.795   0.000  0.00  0.00    +0.156 HD
ATOM     34  O   UNL     1       0.750   5.946   0.000  0.00  0.00    -0.252 OA
BRANCH   4   3
ATOM      1  C   UNL     1       0.951   9.294   0.000  0.00  0.00    +0.024 C 
ATOM      2  C   UNL     1       2.250  10.044   0.000  0.00  0.00    +0.024 C 
ATOM      3  C   UNL     1       2.250   8.544   0.000  0.00  0.00    +0.075 C 
ENDBRANCH   4   3
ENDBRANCH   9   7
BRANCH  12  13
ATOM     13  C   UNL     1       9.000   4.647   0.000  0.00  0.00    -0.014 A 
ATOM     14  C   UNL     1       9.750   3.348   0.000  0.00  0.00    +0.056 A 
ATOM     15  C   UNL     1      11.250   3.348   0.000  0.00  0.00    +0.142 A 
ATOM     18  C   UNL     1      12.000   4.647   0.000  0.00  0.00    +0.077 A 
ATOM     28  C   UNL     1      11.250   5.946   0.000  0.00  0.00    +0.027 A 
ATOM     29  C   UNL     1       9.750   5.946   0.000  0.00  0.00    +0.010 A 
BRANCH  18  19
ATOM     19  N   UNL     1      13.500   4.647   0.000  0.00  0.00    -0.266 N 
ATOM     20  H   UNL     1      13.992   3.795   0.000  0.00  0.00    +0.156 HD
ATOM     21  C   UNL     1      14.250   5.946   0.000  0.00  0.00    +0.304 C 
ATOM     22  N   UNL     1      15.750   5.946   0.000  0.00  0.00    -0.296 N 
ATOM     23  H   UNL     1      16.242   5.094   0.000  0.00  0.00    +0.151 HD
ATOM     27  O   UNL     1      13.500   7.245   0.000  0.00  0.00    -0.252 OA
BRANCH  22  24
ATOM     24  C   UNL     1      16.500   7.245   0.000  0.00  0.00    +0.075 C 
ATOM     25  C   UNL     1      17.799   7.995   0.000  0.00  0.00    +0.024 C 
ATOM     26  C   UNL     1      16.500   8.745   0.000  0.00  0.00    +0.024 C 
ENDBRANCH  22  24
ENDBRANCH  18  19
BRANCH  15  16
ATOM     16  O   UNL     1      12.000   2.049   0.000  0.00  0.00    -0.493 OA
ATOM     17  C   UNL     1      13.500   2.049   0.000  0.00  0.00    +0.277 C 
ENDBRANCH  15  16
ENDBRANCH  12  13
BRANCH  10  31
ATOM     31  O   UNL     1       4.500   2.049   0.000  0.00  0.00    -0.493 OA
ATOM     32  C   UNL     1       5.250   0.750   0.000  0.00  0.00    +0.277 C 
ENDBRANCH  10  31
TORSDOF 7