REMARK  Name = 40817
REMARK  6 active torsions:
REMARK  status: ('A' for Active; 'I' for Inactive)
REMARK    1  A    between atoms: C_2  and  C_8
REMARK    2  A    between atoms: C_2  and  C_9
REMARK    3  A    between atoms: C_5  and  C_7
REMARK    4  A    between atoms: N_10  and  C_11
REMARK    5  A    between atoms: C_11  and  C_12
REMARK    6  A    between atoms: C_12  and  C_13
REMARK                            x       y       z     vdW  Elec       q    Type
REMARK                         _______ _______ _______ _____ _____    ______ ____
ROOT
ATOM      1  O   UNL     1      -6.067  -5.024   0.000  0.00  0.00    -0.488 OA
ATOM      2  C   UNL     1      -7.366  -5.774   0.000  0.00  0.00    +0.187 C 
ATOM      3  C   UNL     1      -7.366  -7.274   0.000  0.00  0.00    -0.038 C 
ATOM      4  C   UNL     1      -8.665  -8.024   0.000  0.00  0.00    +0.042 C 
ATOM      5  C   UNL     1      -6.067  -8.024   0.000  0.00  0.00    +0.038 C 
ATOM      6  C   UNL     1      -4.768  -7.274   0.000  0.00  0.00    +0.058 C 
ATOM      7  C   UNL     1      -4.768  -5.774   0.000  0.00  0.00    +0.142 C 
ATOM      8  C   UNL     1      -3.291  -6.035   0.000  0.00  0.00    +0.062 C 
ENDROOT
BRANCH   7   9
ATOM      9  C   UNL     1      -4.255  -4.364   0.000  0.00  0.00    +0.125 C 
ATOM     10  N   UNL     1      -2.778  -4.104   0.000  0.00  0.00    -0.288 NA
BRANCH  10  11
ATOM     11  C   UNL     1      -2.265  -2.695   0.000  0.00  0.00    +0.171 C 
BRANCH  11  12
ATOM     12  C   UNL     1      -0.787  -2.434   0.000  0.00  0.00    -0.059 C 
ATOM     13  C   UNL     1       0.177  -3.583   0.000  0.00  0.00    +0.009 C 
ATOM     14  C   UNL     1      -0.275  -1.025   0.000  0.00  0.00    +0.040 C 
ENDBRANCH  11  12
ENDBRANCH  10  11
ENDBRANCH   7   9
TORSDOF 3