REMARK  Name = 322661
REMARK  6 active torsions:
REMARK  status: ('A' for Active; 'I' for Inactive)
REMARK    1  A    between atoms: C_8  and  C_13
REMARK    2  A    between atoms: C_10  and  C_17
REMARK    3  A    between atoms: C_17  and  O_18
REMARK    4  A    between atoms: C_17  and  C_19
REMARK    5  A    between atoms: C_25  and  S_26
REMARK    6  A    between atoms: S_26  and  O_29
REMARK                            x       y       z     vdW  Elec       q    Type
REMARK                         _______ _______ _______ _____ _____    ______ ____
ROOT
ATOM      1  C   UNL     1       1.500   4.098   0.000  0.00  0.00    +0.228 C 
ATOM      2  S   UNL     1       0.750   2.799   0.000  0.00  0.00    +0.077 S 
ATOM      5  O   UNL     1       0.000   1.500   0.000  0.00  0.00    -0.148 OA
ATOM      6  O   UNL     1       2.049   2.049   0.000  0.00  0.00    -0.148 OA
ENDROOT
BRANCH   2   3
ATOM      3  O   UNL     1      -0.549   3.549   0.000  0.00  0.00    -0.254 OA
ATOM      4  H   UNL     1      -0.549   4.519   0.000  0.00  0.00    +0.244 HD
ENDBRANCH   2   3
TORSDOF 1