REMARK  Name = 326921
REMARK  6 active torsions:
REMARK  status: ('A' for Active; 'I' for Inactive)
REMARK    1  A    between atoms: C_6  and  S_7
REMARK    2  A    between atoms: S_7  and  C_15
REMARK    3  A    between atoms: S_8  and  C_9
REMARK    4  A    between atoms: S_8  and  C_18
REMARK    5  A    between atoms: C_15  and  C_16
REMARK    6  A    between atoms: C_17  and  C_18
REMARK                            x       y       z     vdW  Elec       q    Type
REMARK                         _______ _______ _______ _____ _____    ______ ____
ROOT
ATOM      7  C   UNL     1       1.400  -6.870   0.000  0.00  0.00    -0.019 C 
ATOM      8  C   UNL     1       2.150  -5.571   0.000  0.00  0.00    -0.019 C 
ENDROOT
BRANCH   7   6
ATOM      6  C   UNL     1       2.150  -8.169   0.000  0.00  0.00    +0.102 C 
BRANCH   6   5
ATOM      5  S   UNL     1       1.400  -9.468   0.000  0.00  0.00    -0.102 S 
BRANCH   5   4
ATOM      1  C   UNL     1       3.650 -13.365   0.000  0.00  0.00    +0.020 A 
ATOM      2  C   UNL     1       2.150 -13.365   0.000  0.00  0.00    +0.112 A 
ATOM      3  N   UNL     1       1.400 -12.066   0.000  0.00  0.00    -0.249 NA
ATOM      4  C   UNL     1       2.150 -10.767   0.000  0.00  0.00    +0.097 A 
ATOM     17  C   UNL     1       3.650 -10.767   0.000  0.00  0.00    +0.035 A 
ATOM     18  C   UNL     1       4.400 -12.066   0.000  0.00  0.00    +0.004 A 
ENDBRANCH   5   4
ENDBRANCH   6   5
ENDBRANCH   7   6
BRANCH   8   9
ATOM      9  C   UNL     1       1.400  -4.272   0.000  0.00  0.00    +0.102 C 
BRANCH   9  10
ATOM     10  S   UNL     1      -0.078  -4.533   0.000  0.00  0.00    -0.102 S 
BRANCH  10  11
ATOM     11  C   UNL     1      -1.042  -3.384   0.000  0.00  0.00    +0.097 A 
ATOM     12  N   UNL     1      -2.519  -3.644   0.000  0.00  0.00    -0.249 NA
ATOM     13  C   UNL     1      -3.483  -2.495   0.000  0.00  0.00    +0.112 A 
ATOM     14  C   UNL     1      -2.970  -1.085   0.000  0.00  0.00    +0.020 A 
ATOM     15  C   UNL     1      -1.493  -0.825   0.000  0.00  0.00    +0.004 A 
ATOM     16  C   UNL     1      -0.529  -1.974   0.000  0.00  0.00    +0.035 A 
ENDBRANCH  10  11
ENDBRANCH   9  10
ENDBRANCH   8   9
TORSDOF 6