REMARK  Name = 35582
REMARK  4 active torsions:
REMARK  status: ('A' for Active; 'I' for Inactive)
REMARK    1  A    between atoms: C_15  and  S_16
REMARK    2  A    between atoms: S_16  and  C_21
REMARK    3  A    between atoms: S_17  and  C_18
REMARK    4  A    between atoms: S_17  and  C_21
REMARK                            x       y       z     vdW  Elec       q    Type
REMARK                         _______ _______ _______ _____ _____    ______ ____
ROOT
ATOM      7  C   UNL     1      -0.189  -2.520   0.000  0.00  0.00    +0.152 C 
ENDROOT
BRANCH   7   6
ATOM      6  S   UNL     1       1.273  -2.857   0.000  0.00  0.00    -0.088 S 
BRANCH   6   5
ATOM      1  C   UNL     1       3.657   1.902   0.000  0.00  0.00    +0.029 A 
ATOM      2  C   UNL     1       3.320   0.440   0.000  0.00  0.00    +0.079 A 
ATOM      3  C   UNL     1       4.418  -0.582   0.000  0.00  0.00    +0.040 A 
ATOM      4  S   UNL     1       3.785  -1.942   0.000  0.00  0.00    -0.061 S 
ATOM      5  C   UNL     1       2.296  -1.760   0.000  0.00  0.00    +0.137 A 
ATOM     18  C   UNL     1       5.852  -0.143   0.000  0.00  0.00    +0.017 A 
ATOM     19  C   UNL     1       6.189   1.319   0.000  0.00  0.00    +0.001 A 
ATOM     20  N   UNL     1       2.009  -0.287   0.000  0.00  0.00    -0.233 NA
ATOM     21  C   UNL     1       5.091   2.341   0.000  0.00  0.00    +0.002 A 
ENDBRANCH   6   5
ENDBRANCH   7   6
BRANCH   7   8
ATOM      8  S   UNL     1      -0.372  -1.032   0.000  0.00  0.00    -0.088 S 
BRANCH   8   9
ATOM      9  C   UNL     1      -1.753  -0.446   0.000  0.00  0.00    +0.137 A 
ATOM     10  N   UNL     1      -3.039  -1.219   0.000  0.00  0.00    -0.233 NA
ATOM     11  C   UNL     1      -4.171  -0.236   0.000  0.00  0.00    +0.079 A 
ATOM     12  C   UNL     1      -3.586   1.145   0.000  0.00  0.00    +0.040 A 
ATOM     13  C   UNL     1      -4.489   2.343   0.000  0.00  0.00    +0.017 A 
ATOM     14  C   UNL     1      -5.978   2.159   0.000  0.00  0.00    +0.001 A 
ATOM     15  C   UNL     1      -6.563   0.778   0.000  0.00  0.00    +0.002 A 
ATOM     16  C   UNL     1      -5.660  -0.419   0.000  0.00  0.00    +0.029 A 
ATOM     17  S   UNL     1      -2.091   1.015   0.000  0.00  0.00    -0.061 S 
ENDBRANCH   8   9
ENDBRANCH   7   8
TORSDOF 4