REMARK  Name = 37627
REMARK  4 active torsions:
REMARK  status: ('A' for Active; 'I' for Inactive)
REMARK    1  A    between atoms: O_1  and  C_24
REMARK    2  A    between atoms: O_1  and  C_25
REMARK    3  A    between atoms: O_4  and  C_10
REMARK    4  A    between atoms: O_4  and  C_11
REMARK                            x       y       z     vdW  Elec       q    Type
REMARK                         _______ _______ _______ _____ _____    ______ ____
ROOT
ATOM      8  C   UNL     1      -8.718  -8.899   0.000  0.00  0.00    +0.140 A 
ATOM      9  C   UNL     1     -10.017  -8.149   0.000  0.00  0.00    +0.047 A 
ATOM     10  C   UNL     1     -10.017  -6.649   0.000  0.00  0.00    +0.004 A 
ATOM     11  C   UNL     1      -8.718  -5.899   0.000  0.00  0.00    +0.012 A 
ATOM     12  C   UNL     1      -7.419  -6.649   0.000  0.00  0.00    +0.037 A 
ATOM     13  C   UNL     1      -6.120  -5.899   0.000  0.00  0.00    +0.198 C 
ATOM     14  C   UNL     1      -4.821  -6.649   0.000  0.00  0.00    +0.075 A 
ATOM     15  C   UNL     1      -4.821  -8.149   0.000  0.00  0.00    +0.037 A 
ATOM     16  C   UNL     1      -6.120  -8.899   0.000  0.00  0.00    +0.198 C 
ATOM     17  O   UNL     1      -6.120 -10.400   0.000  0.00  0.00    -0.286 OA
ATOM     18  C   UNL     1      -3.522  -8.899   0.000  0.00  0.00    +0.012 A 
ATOM     19  C   UNL     1      -2.223  -8.149   0.000  0.00  0.00    +0.004 A 
ATOM     20  C   UNL     1      -2.223  -6.649   0.000  0.00  0.00    +0.047 A 
ATOM     21  C   UNL     1      -3.522  -5.899   0.000  0.00  0.00    +0.140 A 
ATOM     29  O   UNL     1      -6.120  -4.399   0.000  0.00  0.00    -0.286 OA
ATOM     30  C   UNL     1      -7.419  -8.149   0.000  0.00  0.00    +0.075 A 
ENDROOT
BRANCH   8   1
ATOM      1  O   UNL     1      -8.718 -10.400   0.000  0.00  0.00    -0.455 OA
BRANCH   1   2
ATOM      2  C   UNL     1     -10.017 -11.150   0.000  0.00  0.00    +0.128 A 
ATOM      3  C   UNL     1     -11.316 -10.400   0.000  0.00  0.00    +0.046 A 
ATOM      4  C   UNL     1     -12.615 -11.150   0.000  0.00  0.00    +0.004 A 
ATOM      5  C   UNL     1     -12.615 -12.650   0.000  0.00  0.00    +0.000 A 
ATOM      6  C   UNL     1     -11.316 -13.400   0.000  0.00  0.00    +0.004 A 
ATOM      7  C   UNL     1     -10.017 -12.650   0.000  0.00  0.00    +0.046 A 
ENDBRANCH   1   2
ENDBRANCH   8   1
BRANCH  21  22
ATOM     22  O   UNL     1      -3.522  -4.399   0.000  0.00  0.00    -0.455 OA
BRANCH  22  23
ATOM     23  C   UNL     1      -2.223  -3.650   0.000  0.00  0.00    +0.128 A 
ATOM     24  C   UNL     1      -2.223  -2.150   0.000  0.00  0.00    +0.046 A 
ATOM     25  C   UNL     1      -0.924  -1.400   0.000  0.00  0.00    +0.004 A 
ATOM     26  C   UNL     1       0.375  -2.150   0.000  0.00  0.00    +0.000 A 
ATOM     27  C   UNL     1       0.375  -3.650   0.000  0.00  0.00    +0.004 A 
ATOM     28  C   UNL     1      -0.924  -4.399   0.000  0.00  0.00    +0.046 A 
ENDBRANCH  22  23
ENDBRANCH  21  22
TORSDOF 4