REMARK  Name = 211340
REMARK  5 active torsions:
REMARK  status: ('A' for Active; 'I' for Inactive)
REMARK    1  A    between atoms: C_4  and  C_7
REMARK    2  A    between atoms: C_5  and  N_18
REMARK    3  A    between atoms: C_7  and  S_8
REMARK    4  A    between atoms: S_8  and  C_14
REMARK    5  A    between atoms: C_10  and  O_21
REMARK                            x       y       z     vdW  Elec       q    Type
REMARK                         _______ _______ _______ _____ _____    ______ ____
ROOT
ATOM     10  C   UNL     1       3.623  -3.275   0.000  0.00  0.00    +0.194 A 
ATOM     11  N   UNL     1       4.922  -2.525   0.000  0.00  0.00    -0.202 NA
ATOM     12  C   UNL     1       6.221  -3.275   0.000  0.00  0.00    +0.166 A 
ATOM     13  N   UNL     1       7.647  -2.811   0.000  0.00  0.00    -0.329 N 
ATOM     14  H   UNL     1       7.952  -1.875   0.000  0.00  0.00    +0.168 HD
ATOM     15  C   UNL     1       8.529  -4.024   0.000  0.00  0.00    +0.199 A 
ATOM     16  N   UNL     1       7.647  -5.238   0.000  0.00  0.00    -0.229 NA
ATOM     17  C   UNL     1       6.221  -4.774   0.000  0.00  0.00    +0.169 A 
ATOM     18  C   UNL     1       4.922  -5.524   0.000  0.00  0.00    +0.245 A 
ATOM     21  N   UNL     1       3.623  -4.774   0.000  0.00  0.00    -0.185 NA
ENDROOT
BRANCH  18  19
ATOM     19  O   UNL     1       4.922  -7.024   0.000  0.00  0.00    -0.491 OA
ATOM     20  H   UNL     1       4.110  -7.493   0.000  0.00  0.00    +0.294 HD
ENDBRANCH  18  19
BRANCH  10   9
ATOM      9  S   UNL     1       2.324  -2.525   0.000  0.00  0.00    -0.081 S 
BRANCH   9   8
ATOM      8  C   UNL     1       2.324  -1.025   0.000  0.00  0.00    +0.119 C 
BRANCH   8   7
ATOM      1  C   UNL     1       6.552   0.515   0.000  0.00  0.00    +0.007 A 
ATOM      2  C   UNL     1       5.403   1.479   0.000  0.00  0.00    +0.084 A 
ATOM      3  C   UNL     1       3.994   0.966   0.000  0.00  0.00    +0.277 A 
ATOM      7  C   UNL     1       3.733  -0.511   0.000  0.00  0.00    +0.040 A 
ATOM     22  C   UNL     1       4.882  -1.476   0.000  0.00  0.00    +0.011 A 
ATOM     23  C   UNL     1       6.292  -0.963   0.000  0.00  0.00    +0.001 A 
BRANCH   3   4
ATOM      4  N   UNL     1       2.845   1.930   0.000  0.00  0.00    +0.080 N 
ATOM      5  O   UNL     1       1.435   1.417   0.000  0.00  0.00    +0.041 OA
ATOM      6  O   UNL     1       3.105   3.407   0.000  0.00  0.00    -0.576 OA
ENDBRANCH   3   4
ENDBRANCH   8   7
ENDBRANCH   9   8
ENDBRANCH  10   9
TORSDOF 5