REMARK  Name = 327693
REMARK  4 active torsions:
REMARK  status: ('A' for Active; 'I' for Inactive)
REMARK    1  A    between atoms: S_2  and  C_4
REMARK    2  A    between atoms: C_10  and  C_14
REMARK    3  A    between atoms: N_13  and  C_14
REMARK    4  A    between atoms: N_15  and  N_16
REMARK                            x       y       z     vdW  Elec       q    Type
REMARK                         _______ _______ _______ _____ _____    ______ ____
ROOT
ATOM      3  C   UNL     1     -10.294   1.244   0.000  0.00  0.00    +0.157 A 
ATOM      4  S   UNL     1      -9.982  -0.223   0.000  0.00  0.00    -0.024 S 
ATOM      5  C   UNL     1      -8.490  -0.380   0.000  0.00  0.00    +0.190 A 
ATOM      6  N   UNL     1      -7.740  -1.679   0.000  0.00  0.00    -0.247 N 
ATOM      7  H   UNL     1      -8.232  -2.532   0.000  0.00  0.00    +0.158 HD
ATOM      8  C   UNL     1      -6.240  -1.679   0.000  0.00  0.00    +0.306 C 
ATOM      9  N   UNL     1      -5.490  -2.978   0.000  0.00  0.00    -0.290 N 
ATOM     10  H   UNL     1      -5.982  -3.831   0.000  0.00  0.00    +0.151 HD
ATOM     19  O   UNL     1      -5.490  -0.380   0.000  0.00  0.00    -0.252 OA
ATOM     20  N   UNL     1      -7.880   0.990   0.000  0.00  0.00    -0.125 NA
ATOM     21  N   UNL     1      -8.995   1.994   0.000  0.00  0.00    -0.133 NA
ENDROOT
BRANCH   3   2
ATOM      1  H   UNL     1     -11.821   3.346   0.000  0.00  0.00    +0.109 HD
ATOM      2  S   UNL     1     -11.664   1.854   0.000  0.00  0.00    -0.114 S 
ENDBRANCH   3   2
BRANCH   9  11
ATOM     11  C   UNL     1      -3.990  -2.978   0.000  0.00  0.00    +0.203 C 
BRANCH  11  12
ATOM     12  C   UNL     1      -3.240  -1.679   0.000  0.00  0.00    +0.244 C 
ATOM     13  N   UNL     1      -1.740  -1.679   0.000  0.00  0.00    -0.252 N 
ATOM     14  H   UNL     1      -1.248  -2.532   0.000  0.00  0.00    +0.169 HD
ATOM     18  O   UNL     1      -3.990  -0.380   0.000  0.00  0.00    -0.273 OA
BRANCH  13  15
ATOM     15  N   UNL     1      -0.990  -0.380   0.000  0.00  0.00    -0.254 NA
ATOM     16  H   UNL     1      -1.500   0.503   0.000  0.00  0.00    +0.140 HD
ATOM     17  H   UNL     1       0.030  -0.380   0.000  0.00  0.00    +0.140 HD
ENDBRANCH  13  15
ENDBRANCH  11  12
ENDBRANCH   9  11
TORSDOF 4