REMARK  Name = 328403
REMARK  11 active torsions:
REMARK  status: ('A' for Active; 'I' for Inactive)
REMARK    1  A    between atoms: C_1  and  N_29
REMARK    2  A    between atoms: C_4  and  C_25
REMARK    3  A    between atoms: C_5  and  O_19
REMARK    4  A    between atoms: C_9  and  O_21
REMARK    5  A    between atoms: C_12  and  O_23
REMARK    6  A    between atoms: C_18  and  O_27
REMARK    7  A    between atoms: O_19  and  C_20
REMARK    8  A    between atoms: O_21  and  C_22
REMARK    9  A    between atoms: O_23  and  C_24
REMARK   10  A    between atoms: O_27  and  C_28
REMARK   11  A    between atoms: C_30  and  C_32
REMARK                            x       y       z     vdW  Elec       q    Type
REMARK                         _______ _______ _______ _____ _____    ______ ____
ROOT
ATOM      1  C   UNL     1      10.753   2.238   0.000  0.00  0.00    +0.104 C 
ATOM      7  C   UNL     1      10.102   0.886   0.000  0.00  0.00    -0.016 A 
ATOM      8  C   UNL     1       8.640   0.552   0.000  0.00  0.00    -0.009 A 
ATOM      9  C   UNL     1       7.989  -0.799   0.000  0.00  0.00    +0.012 A 
ATOM     10  C   UNL     1       8.640  -2.151   0.000  0.00  0.00    +0.050 A 
ATOM     11  C   UNL     1      10.102  -2.484   0.000  0.00  0.00    +0.167 A 
ATOM     14  C   UNL     1      11.275  -1.549   0.000  0.00  0.00    +0.221 A 
ATOM     15  O   UNL     1      12.627  -2.200   0.000  0.00  0.00    -0.284 OA
ATOM     16  C   UNL     1       7.467   1.488   0.000  0.00  0.00    +0.032 A 
ATOM     17  C   UNL     1       6.168   0.738   0.000  0.00  0.00    +0.173 A 
ATOM     20  C   UNL     1       4.869   1.488   0.000  0.00  0.00    +0.205 A 
ATOM     23  C   UNL     1       4.869   2.988   0.000  0.00  0.00    +0.176 A 
ATOM     26  C   UNL     1       6.168   3.738   0.000  0.00  0.00    +0.063 A 
ATOM     29  C   UNL     1       7.467   2.988   0.000  0.00  0.00    -0.022 A 
ATOM     30  C   UNL     1       8.640   3.923   0.000  0.00  0.00    +0.039 C 
ATOM     31  C   UNL     1      11.275  -0.049   0.000  0.00  0.00    +0.060 A 
ATOM     32  C   UNL     1      10.102   3.589   0.000  0.00  0.00    +0.032 C 
ENDROOT
BRANCH   1   2
ATOM      2  N   UNL     1      11.926   1.302   0.000  0.00  0.00    -0.309 N 
ATOM      3  H   UNL     1      11.779   0.329   0.000  0.00  0.00    +0.149 HD
ATOM      4  C   UNL     1      13.322   1.850   0.000  0.00  0.00    +0.210 C 
ATOM      5  C   UNL     1      14.495   0.915   0.000  0.00  0.00    +0.109 C 
ATOM      6  O   UNL     1      13.546   3.334   0.000  0.00  0.00    -0.276 OA
ENDBRANCH   1   2
BRANCH  11  12
ATOM     12  O   UNL     1      10.436  -3.947   0.000  0.00  0.00    -0.491 OA
ATOM     13  C   UNL     1      11.870  -4.389   0.000  0.00  0.00    +0.277 C 
ENDBRANCH  11  12
BRANCH  17  18
ATOM     18  O   UNL     1       6.168  -0.762   0.000  0.00  0.00    -0.491 OA
ATOM     19  C   UNL     1       4.869  -1.512   0.000  0.00  0.00    +0.277 C 
ENDBRANCH  17  18
BRANCH  20  21
ATOM     21  O   UNL     1       3.570   0.738   0.000  0.00  0.00    -0.488 OA
ATOM     22  C   UNL     1       2.271   1.488   0.000  0.00  0.00    +0.277 C 
ENDBRANCH  20  21
BRANCH  23  24
ATOM     24  O   UNL     1       3.570   3.738   0.000  0.00  0.00    -0.491 OA
ATOM     25  C   UNL     1       2.271   2.988   0.000  0.00  0.00    +0.277 C 
ENDBRANCH  23  24
BRANCH  26  27
ATOM     27  C   UNL     1       6.168   5.238   0.000  0.00  0.00    +0.262 C 
ATOM     28  O   UNL     1       4.869   5.988   0.000  0.00  0.00    -0.296 OA
ENDBRANCH  26  27
TORSDOF 6