REMARK  Name = 24951
REMARK  0 active torsions:
REMARK  status: ('A' for Active; 'I' for Inactive)
REMARK                            x       y       z     vdW  Elec       q    Type
REMARK                         _______ _______ _______ _____ _____    ______ ____
ROOT
ATOM      1  O   UNL     1       6.249   0.750   0.000  0.00  0.00    -0.275 OA
ATOM      2  C   UNL     1       7.050   2.018   0.000  0.00  0.00    +0.223 C 
ATOM      3  C   UNL     1       8.400   1.970   0.000  0.00  0.00    +0.128 C 
ATOM      4  C   UNL     1       9.108   3.203   0.000  0.00  0.00    +0.133 C 
ATOM      5  C   UNL     1       8.459   4.366   0.000  0.00  0.00    +0.048 C 
ATOM      6  C   UNL     1       7.068   4.435   0.000  0.00  0.00    +0.104 C 
ATOM      7  C   UNL     1       6.474   5.532   0.000  0.00  0.00    +0.064 C 
ATOM      8  C   UNL     1       4.915   5.246   0.000  0.00  0.00    -0.012 A 
ATOM      9  C   UNL     1       3.540   6.046   0.000  0.00  0.00    +0.006 A 
ATOM     10  C   UNL     1       2.164   5.246   0.000  0.00  0.00    +0.000 A 
ATOM     11  C   UNL     1       2.164   3.683   0.000  0.00  0.00    +0.002 A 
ATOM     12  C   UNL     1       3.540   2.880   0.000  0.00  0.00    +0.024 A 
ATOM     13  C   UNL     1       4.915   3.683   0.000  0.00  0.00    +0.041 A 
ATOM     14  C   UNL     1       7.153   6.761   0.000  0.00  0.00    +0.077 C 
ATOM     15  C   UNL     1       8.495   6.717   0.000  0.00  0.00    +0.063 C 
ATOM     16  N   UNL     1       6.272   7.817   0.000  0.00  0.00    +0.223 N 
ATOM     17  C   UNL     1       4.996   7.293   0.000  0.00  0.00    +0.132 C 
ATOM     18  C   UNL     1       9.159   8.188   0.000  0.00  0.00    +0.162 C 
ATOM     19  C   UNL     1      10.428   5.679   0.000  0.00  0.00    -0.023 C 
ATOM     20  C   UNL     1      11.364   4.927   0.000  0.00  0.00    +0.005 C 
ATOM     21  C   UNL     1      11.360   3.724   0.000  0.00  0.00    +0.187 C 
ATOM     22  O   UNL     1       5.888   9.267   0.000  0.00  0.00    -0.775 OA
ATOM     23  C   UNL     1       5.117   5.870   0.000  0.00  0.00    +0.070 C 
ATOM     24  C   UNL     1       9.189   5.507   0.000  0.00  0.00    +0.032 C 
ATOM     25  O   UNL     1      10.373   2.931   0.000  0.00  0.00    -0.372 OA
ATOM     26  N   UNL     1       6.419   3.232   0.000  0.00  0.00    -0.267 N 
ENDROOT
TORSDOF 0