REMARK  Name = 280058
REMARK  13 active torsions:
REMARK  status: ('A' for Active; 'I' for Inactive)
REMARK    1  A    between atoms: O_1  and  C_2
REMARK    2  A    between atoms: O_1  and  C_17
REMARK    3  A    between atoms: C_3  and  C_20
REMARK    4  A    between atoms: C_4  and  C_21
REMARK    5  A    between atoms: C_5  and  O_6
REMARK    6  A    between atoms: O_6  and  C_24
REMARK    7  A    between atoms: C_11  and  C_27
REMARK    8  A    between atoms: C_13  and  O_28
REMARK    9  A    between atoms: C_15  and  C_29
REMARK   10  A    between atoms: C_17  and  C_19
REMARK   11  A    between atoms: C_21  and  C_23
REMARK   12  A    between atoms: C_24  and  C_26
REMARK   13  A    between atoms: C_29  and  C_31
REMARK                            x       y       z     vdW  Elec       q    Type
REMARK                         _______ _______ _______ _____ _____    ______ ____
ROOT
ATOM      5  C   UNL     1       6.221   1.775   0.000  0.00  0.00    +0.152 A 
ATOM      6  C   UNL     1       6.221   0.275   0.000  0.00  0.00    +0.035 A 
ATOM      7  C   UNL     1       4.922  -0.475   0.000  0.00  0.00    +0.051 C 
ATOM      8  C   UNL     1       7.520  -0.475   0.000  0.00  0.00    +0.146 A 
ATOM     13  C   UNL     1       8.819   0.275   0.000  0.00  0.00    +0.054 A 
ATOM     14  C   UNL     1      10.245  -0.189   0.000  0.00  0.00    +0.095 C 
ATOM     15  C   UNL     1       9.242  -1.304   0.000  0.00  0.00    +0.028 C 
ATOM     16  C   UNL     1      10.855  -1.559   0.000  0.00  0.00    +0.122 C 
ATOM     19  C   UNL     1      12.347  -1.716   0.000  0.00  0.00    +0.098 C 
ATOM     23  C   UNL     1      13.229  -0.503   0.000  0.00  0.00    +0.173 C 
ATOM     24  O   UNL     1      14.721  -0.659   0.000  0.00  0.00    -0.292 OA
ATOM     25  C   UNL     1      12.619   0.868   0.000  0.00  0.00    +0.125 C 
ATOM     26  C   UNL     1      11.127   1.025   0.000  0.00  0.00    +0.199 C 
ATOM     27  O   UNL     1      10.245   2.238   0.000  0.00  0.00    -0.486 OA
ATOM     28  C   UNL     1       8.819   1.775   0.000  0.00  0.00    +0.143 A 
ATOM     29  C   UNL     1       7.520   2.525   0.000  0.00  0.00    +0.102 A 
ENDROOT
BRANCH  19  20
ATOM     20  C   UNL     1      12.957  -3.086   0.000  0.00  0.00    +0.167 C 
ATOM     21  C   UNL     1      12.076  -4.300   0.000  0.00  0.00    +0.092 C 
ATOM     22  O   UNL     1      14.449  -3.243   0.000  0.00  0.00    -0.292 OA
ENDBRANCH  19  20
BRANCH  29  30
ATOM     30  C   UNL     1       7.520   4.024   0.000  0.00  0.00    +0.167 C 
ATOM     31  C   UNL     1       8.819   4.774   0.000  0.00  0.00    +0.092 C 
ATOM     32  O   UNL     1       6.221   4.774   0.000  0.00  0.00    -0.292 OA
ENDBRANCH  29  30
BRANCH  16  17
ATOM     17  O   UNL     1       9.974  -2.773   0.000  0.00  0.00    -0.509 OA
ATOM     18  H   UNL     1       9.042  -2.675   0.000  0.00  0.00    +0.292 HD
ENDBRANCH  16  17
BRANCH   5   1
ATOM      1  O   UNL     1       4.922   2.525   0.000  0.00  0.00    -0.425 OA
BRANCH   1   2
ATOM      2  C   UNL     1       3.623   1.775   0.000  0.00  0.00    +0.309 C 
ATOM      3  C   UNL     1       3.623   0.275   0.000  0.00  0.00    +0.136 C 
ATOM      4  O   UNL     1       2.324   2.525   0.000  0.00  0.00    -0.251 OA
ENDBRANCH   1   2
ENDBRANCH   5   1
BRANCH   8   9
ATOM      9  O   UNL     1       7.520  -1.976   0.000  0.00  0.00    -0.425 OA
BRANCH   9  10
ATOM     10  C   UNL     1       6.221  -2.725   0.000  0.00  0.00    +0.309 C 
ATOM     11  C   UNL     1       6.221  -4.226   0.000  0.00  0.00    +0.136 C 
ATOM     12  O   UNL     1       4.922  -1.976   0.000  0.00  0.00    -0.251 OA
ENDBRANCH   9  10
ENDBRANCH   8   9
TORSDOF 7