REMARK  Name = 374814
REMARK  9 active torsions:
REMARK  status: ('A' for Active; 'I' for Inactive)
REMARK    1  A    between atoms: O_1  and  C_3
REMARK    2  A    between atoms: O_1  and  C_12
REMARK    3  A    between atoms: C_6  and  O_8
REMARK    4  A    between atoms: C_7  and  N_13
REMARK    5  A    between atoms: O_8  and  C_14
REMARK    6  A    between atoms: N_11  and  C_15
REMARK    7  A    between atoms: N_11  and  C_16
REMARK    8  A    between atoms: C_15  and  C_18
REMARK    9  A    between atoms: C_16  and  C_17
REMARK                            x       y       z     vdW  Elec       q    Type
REMARK                         _______ _______ _______ _____ _____    ______ ____
ROOT
ATOM      6  N   UNL     1       6.750   3.348   0.000  0.00  0.00    -0.266 N 
ATOM      7  H   UNL     1       7.242   2.495   0.000  0.00  0.00    +0.156 HD
ATOM      8  C   UNL     1       7.500   4.647   0.000  0.00  0.00    +0.307 C 
ATOM      9  N   UNL     1       9.000   4.647   0.000  0.00  0.00    -0.278 N 
ATOM     16  O   UNL     1       6.750   5.946   0.000  0.00  0.00    -0.252 OA
ENDROOT
BRANCH   6   5
ATOM      3  C   UNL     1       3.000   4.647   0.000  0.00  0.00    +0.122 A 
ATOM      4  C   UNL     1       4.500   4.647   0.000  0.00  0.00    +0.072 A 
ATOM      5  C   UNL     1       5.250   3.348   0.000  0.00  0.00    +0.080 A 
ATOM     17  C   UNL     1       4.500   2.049   0.000  0.00  0.00    +0.141 A 
ATOM     20  C   UNL     1       3.000   2.049   0.000  0.00  0.00    +0.051 A 
ATOM     21  C   UNL     1       2.250   3.348   0.000  0.00  0.00    +0.049 A 
BRANCH   3   1
ATOM      1  O   UNL     1       2.250   5.946   0.000  0.00  0.00    -0.495 OA
ATOM      2  C   UNL     1       0.750   5.946   0.000  0.00  0.00    +0.277 C 
ENDBRANCH   3   1
BRANCH  17  18
ATOM     18  O   UNL     1       5.250   0.750   0.000  0.00  0.00    -0.493 OA
ATOM     19  C   UNL     1       6.750   0.750   0.000  0.00  0.00    +0.277 C 
ENDBRANCH  17  18
ENDBRANCH   6   5
BRANCH   9  10
ATOM     10  C   UNL     1       9.750   3.348   0.000  0.00  0.00    +0.136 C 
BRANCH  10  11
ATOM     11  C   UNL     1      11.250   3.348   0.000  0.00  0.00    -0.016 C 
ATOM     12  C   UNL     1      12.000   4.647   0.000  0.00  0.00    +0.005 C 
ENDBRANCH  10  11
ENDBRANCH   9  10
BRANCH   9  13
ATOM     13  C   UNL     1       9.750   5.946   0.000  0.00  0.00    +0.136 C 
BRANCH  13  14
ATOM     14  C   UNL     1      11.250   5.946   0.000  0.00  0.00    -0.016 C 
ATOM     15  C   UNL     1      12.000   7.245   0.000  0.00  0.00    +0.005 C 
ENDBRANCH  13  14
ENDBRANCH   9  13
TORSDOF 7