REMARK  Name = 351691
REMARK  6 active torsions:
REMARK  status: ('A' for Active; 'I' for Inactive)
REMARK    1  A    between atoms: C_6  and  C_8
REMARK    2  A    between atoms: C_9  and  N_15
REMARK    3  A    between atoms: C_10  and  C_16
REMARK    4  A    between atoms: C_12  and  C_19
REMARK    5  A    between atoms: C_16  and  C_17
REMARK    6  A    between atoms: C_16  and  C_18
REMARK                            x       y       z     vdW  Elec       q    Type
REMARK                         _______ _______ _______ _____ _____    ______ ____
ROOT
ATOM      5  C   UNL     1       5.250   2.049   0.000  0.00  0.00    +0.244 C 
ATOM      6  N   UNL     1       6.000   3.348   0.000  0.00  0.00    -0.308 N 
ATOM      7  H   UNL     1       5.508   4.201   0.000  0.00  0.00    +0.149 HD
ATOM     18  O   UNL     1       6.000   0.750   0.000  0.00  0.00    -0.270 OA
ENDROOT
BRANCH   6   8
ATOM      8  C   UNL     1       7.500   3.348   0.000  0.00  0.00    +0.077 C 
ATOM      9  C   UNL     1       8.250   2.049   0.000  0.00  0.00    +0.026 C 
ATOM     10  C   UNL     1       9.750   2.049   0.000  0.00  0.00    -0.012 C 
ATOM     11  C   UNL     1      10.500   0.750   0.000  0.00  0.00    +0.007 C 
ATOM     12  C   UNL     1      10.500   3.348   0.000  0.00  0.00    +0.004 C 
ATOM     13  C   UNL     1       9.750   4.647   0.000  0.00  0.00    +0.006 C 
ATOM     14  C   UNL     1       8.250   4.647   0.000  0.00  0.00    +0.012 C 
BRANCH  14  15
ATOM     15  C   UNL     1       7.500   5.946   0.000  0.00  0.00    -0.012 C 
ATOM     16  C   UNL     1       6.000   5.946   0.000  0.00  0.00    +0.007 C 
ATOM     17  C   UNL     1       8.250   7.245   0.000  0.00  0.00    +0.007 C 
ENDBRANCH  14  15
ENDBRANCH   6   8
BRANCH   5   4
ATOM      1  N   UNL     1       0.750   2.049   0.000  0.00  0.00    -0.263 NA
ATOM      2  C   UNL     1       1.500   3.348   0.000  0.00  0.00    +0.111 A 
ATOM      3  C   UNL     1       3.000   3.348   0.000  0.00  0.00    +0.033 A 
ATOM      4  C   UNL     1       3.750   2.049   0.000  0.00  0.00    +0.040 A 
ATOM     19  C   UNL     1       3.000   0.750   0.000  0.00  0.00    +0.033 A 
ATOM     20  C   UNL     1       1.500   0.750   0.000  0.00  0.00    +0.111 A 
ENDBRANCH   5   4
TORSDOF 3