REMARK  Name = 341956
REMARK  10 active torsions:
REMARK  status: ('A' for Active; 'I' for Inactive)
REMARK    1  A    between atoms: C_1  and  O_9
REMARK    2  A    between atoms: C_2  and  O_10
REMARK    3  A    between atoms: C_7  and  C_18
REMARK    4  A    between atoms: C_7  and  C_19
REMARK    5  A    between atoms: O_9  and  C_12
REMARK    6  A    between atoms: O_10  and  C_15
REMARK    7  A    between atoms: C_12  and  C_14
REMARK    8  A    between atoms: C_15  and  C_17
REMARK    9  A    between atoms: C_19  and  O_21
REMARK   10  A    between atoms: O_21  and  C_22
REMARK                            x       y       z     vdW  Elec       q    Type
REMARK                         _______ _______ _______ _____ _____    ______ ____
ROOT
ATOM      1  C   UNL     1      -1.566  -0.180   0.000  0.00  0.00    +0.174 A 
ATOM      6  C   UNL     1      -0.402   0.767   0.000  0.00  0.00    +0.055 A 
ATOM      7  C   UNL     1       0.999   0.232   0.000  0.00  0.00    -0.020 A 
ATOM      8  C   UNL     1       2.334   0.915   0.000  0.00  0.00    +0.074 C 
ATOM      9  C   UNL     1       3.397  -0.143   0.000  0.00  0.00    +0.131 C 
ATOM     14  C   UNL     1       4.657  -0.957   0.000  0.00  0.00    +0.044 C 
ATOM     15  N   UNL     1       2.719  -1.481   0.000  0.00  0.00    -0.329 N 
ATOM     16  H   UNL     1       3.168  -2.357   0.000  0.00  0.00    +0.147 HD
ATOM     17  C   UNL     1       1.237  -1.249   0.000  0.00  0.00    +0.035 A 
ATOM     18  C   UNL     1       0.073  -2.196   0.000  0.00  0.00    +0.073 A 
ATOM     19  C   UNL     1      -1.328  -1.661   0.000  0.00  0.00    +0.175 A 
ENDROOT
BRANCH   9  10
ATOM     10  C   UNL     1       4.339   1.025   0.000  0.00  0.00    +0.331 C 
ATOM     13  O   UNL     1       5.821   0.793   0.000  0.00  0.00    -0.248 OA
BRANCH  10  11
ATOM     11  O   UNL     1       3.799   2.424   0.000  0.00  0.00    -0.466 OA
ATOM     12  C   UNL     1       2.317   2.656   0.000  0.00  0.00    +0.280 C 
ENDBRANCH  10  11
ENDBRANCH   9  10
BRANCH   1   2
ATOM      2  O   UNL     1      -2.967   0.355   0.000  0.00  0.00    -0.422 OA
BRANCH   2   3
ATOM      3  C   UNL     1      -3.205   1.836   0.000  0.00  0.00    +0.309 C 
ATOM      4  C   UNL     1      -4.606   2.371   0.000  0.00  0.00    +0.136 C 
ATOM      5  O   UNL     1      -2.041   2.782   0.000  0.00  0.00    -0.251 OA
ENDBRANCH   2   3
ENDBRANCH   1   2
BRANCH  19  20
ATOM     20  O   UNL     1      -2.492  -2.607   0.000  0.00  0.00    -0.422 OA
BRANCH  20  21
ATOM     21  C   UNL     1      -3.894  -2.072   0.000  0.00  0.00    +0.309 C 
ATOM     22  C   UNL     1      -5.058  -3.019   0.000  0.00  0.00    +0.136 C 
ATOM     23  O   UNL     1      -4.131  -0.591   0.000  0.00  0.00    -0.251 OA
ENDBRANCH  20  21
ENDBRANCH  19  20
TORSDOF 6