REMARK  Name = 35545
REMARK  4 active torsions:
REMARK  status: ('A' for Active; 'I' for Inactive)
REMARK    1  A    between atoms: N_2  and  C_23
REMARK    2  A    between atoms: C_18  and  O_22
REMARK    3  A    between atoms: C_19  and  O_20
REMARK    4  A    between atoms: O_20  and  C_21
REMARK                            x       y       z     vdW  Elec       q    Type
REMARK                         _______ _______ _______ _____ _____    ______ ____
ROOT
ATOM      1  C   UNL     1       0.762   0.438   0.000  0.00  0.00    +0.018 C 
ATOM      2  C   UNL     1       0.394  -0.200   0.000  0.00  0.00    +0.012 C 
ATOM      3  C   UNL     1      -0.342  -0.200   0.000  0.00  0.00    +0.008 A 
ATOM      4  C   UNL     1      -0.709  -0.837   0.000  0.00  0.00    +0.162 A 
ATOM      7  C   UNL     1      -1.445  -0.837   0.000  0.00  0.00    +0.162 A 
ATOM     10  C   UNL     1      -1.813  -0.200   0.000  0.00  0.00    +0.049 A 
ATOM     11  C   UNL     1      -1.445   0.438   0.000  0.00  0.00    +0.008 A 
ATOM     12  C   UNL     1      -0.709   0.438   0.000  0.00  0.00    -0.038 A 
ATOM     13  C   UNL     1      -0.342   1.075   0.000  0.00  0.00    +0.054 C 
ATOM     14  C   UNL     1       1.104  -0.200   0.000  0.00  0.00    +0.028 C 
ATOM     15  C   UNL     1       1.104   1.785   0.000  0.00  0.00    +0.085 C 
ATOM     16  N   UNL     1       0.394   1.785   0.000  0.00  0.00    -0.302 NA
ATOM     17  C   UNL     1      -0.250   2.430   0.000  0.00  0.00    +0.105 C 
ATOM     18  C   UNL     1       0.764  -0.840   0.000  0.00  0.00    +0.086 C 
ATOM     19  C   UNL     1       1.500  -0.840   0.000  0.00  0.00    +0.134 C 
ATOM     20  C   UNL     1       1.869  -0.202   0.000  0.00  0.00    +0.075 C 
ATOM     21  O   UNL     1       1.884  -1.504   0.000  0.00  0.00    -0.297 OA
ATOM     22  C   UNL     1       1.500   0.435   0.000  0.00  0.00    +0.013 C 
ATOM     23  C   UNL     1       0.394   1.075   0.000  0.00  0.00    +0.065 C 
ENDROOT
BRANCH   4   5
ATOM      5  O   UNL     1      -0.318  -1.515   0.000  0.00  0.00    -0.503 OA
ATOM      6  H   UNL     1      -0.787  -2.326   0.000  0.00  0.00    +0.292 HD
ENDBRANCH   4   5
BRANCH   7   8
ATOM      8  O   UNL     1      -1.816  -1.479   0.000  0.00  0.00    -0.491 OA
ATOM      9  C   UNL     1      -2.556  -1.479   0.000  0.00  0.00    +0.277 C 
ENDBRANCH   7   8
TORSDOF 2