REMARK  Name = 335506
REMARK  9 active torsions:
REMARK  status: ('A' for Active; 'I' for Inactive)
REMARK    1  A    between atoms: C_1  and  C_16
REMARK    2  A    between atoms: C_16  and  C_17
REMARK    3  A    between atoms: C_17  and  N_18
REMARK    4  A    between atoms: N_18  and  C_19
REMARK    5  A    between atoms: N_18  and  C_20
REMARK    6  A    between atoms: C_22  and  N_23
REMARK    7  A    between atoms: C_22  and  C_27
REMARK    8  A    between atoms: C_24  and  C_26
REMARK    9  A    between atoms: C_27  and  O_29
REMARK                            x       y       z     vdW  Elec       q    Type
REMARK                         _______ _______ _______ _____ _____    ______ ____
ROOT
ATOM      1  C   UNL     1       2.102  15.743   0.000  0.00  0.00    +0.224 C 
ENDROOT
BRANCH   1   6
ATOM      6  N   UNL     1       0.606  15.633   0.000  0.00  0.00    -0.305 N 
ATOM      7  H   UNL     1       0.052  16.447   0.000  0.00  0.00    +0.149 HD
ATOM      8  C   UNL     1      -0.047  14.282   0.000  0.00  0.00    +0.210 C 
ATOM      9  C   UNL     1      -1.543  14.172   0.000  0.00  0.00    +0.109 C 
ATOM     10  O   UNL     1       0.797  13.042   0.000  0.00  0.00    -0.276 OA
ENDBRANCH   1   6
BRANCH   1   2
ATOM      2  C   UNL     1       2.754  17.094   0.000  0.00  0.00    +0.322 C 
ATOM      5  O   UNL     1       4.250  17.204   0.000  0.00  0.00    -0.249 OA
BRANCH   2   3
ATOM      3  O   UNL     1       1.911  18.334   0.000  0.00  0.00    -0.480 OA
ATOM      4  H   UNL     1       2.318  19.178   0.000  0.00  0.00    +0.295 HD
ENDBRANCH   2   3
ENDBRANCH   1   2
TORSDOF 3