REMARK  Name = 366086
REMARK  1 active torsions:
REMARK  status: ('A' for Active; 'I' for Inactive)
REMARK    1  A    between atoms: C_9  and  C_13
REMARK                            x       y       z     vdW  Elec       q    Type
REMARK                         _______ _______ _______ _____ _____    ______ ____
ROOT
ATOM      1  C   UNL     1      -2.819   1.875   0.000  0.00  0.00    +0.183 A 
ATOM      2  N   UNL     1      -3.753   0.701   0.000  0.00  0.00    -0.148 NA
ATOM      3  N   UNL     1      -2.926  -0.550   0.000  0.00  0.00    -0.126 NA
ATOM      4  C   UNL     1      -1.480  -0.150   0.000  0.00  0.00    +0.191 A 
ATOM      5  N   UNL     1      -0.307  -1.084   0.000  0.00  0.00    -0.231 N 
ATOM      6  C   UNL     1      -0.373  -2.583   0.000  0.00  0.00    +0.232 C 
ATOM      7  C   UNL     1       1.032  -3.108   0.000  0.00  0.00    +0.167 C 
ATOM      8  S   UNL     1       1.966  -1.935   0.000  0.00  0.00    -0.123 S 
ATOM      9  O   UNL     1      -1.624  -3.410   0.000  0.00  0.00    -0.274 OA
ATOM     10  C   UNL     1       1.139  -0.684   0.000  0.00  0.00    +0.178 C 
ATOM     16  S   UNL     1      -1.414   1.349   0.000  0.00  0.00    -0.038 S 
ENDROOT
BRANCH  10  11
ATOM     11  C   UNL     1       1.665   0.721   0.000  0.00  0.00    +0.021 A 
ATOM     12  S   UNL     1       3.110   1.121   0.000  0.00  0.00    -0.099 S 
ATOM     13  C   UNL     1       3.176   2.620   0.000  0.00  0.00    +0.045 A 
ATOM     14  C   UNL     1       1.772   3.146   0.000  0.00  0.00    +0.008 A 
ATOM     15  C   UNL     1       0.837   1.972   0.000  0.00  0.00    +0.014 A 
ENDBRANCH  10  11
TORSDOF 1