REMARK  Name = 330770
REMARK  5 active torsions:
REMARK  status: ('A' for Active; 'I' for Inactive)
REMARK    1  A    between atoms: O_1  and  C_3
REMARK    2  A    between atoms: O_1  and  C_15
REMARK    3  A    between atoms: C_6  and  N_18
REMARK    4  A    between atoms: C_14  and  C_19
REMARK    5  A    between atoms: C_15  and  C_16
REMARK                            x       y       z     vdW  Elec       q    Type
REMARK                         _______ _______ _______ _____ _____    ______ ____
ROOT
ATOM      4  C   UNL     1       3.348   3.000   0.000  0.00  0.00    +0.406 C 
ATOM      5  N   UNL     1       4.647   2.250   0.000  0.00  0.00    -0.235 N 
ATOM      6  H   UNL     1       4.647   1.266   0.000  0.00  0.00    +0.160 HD
ATOM      7  C   UNL     1       5.946   3.000   0.000  0.00  0.00    +0.131 A 
ATOM      8  C   UNL     1       7.245   2.250   0.000  0.00  0.00    +0.069 A 
ATOM      9  C   UNL     1       8.544   3.000   0.000  0.00  0.00    +0.060 A 
ATOM     10  N   UNL     1       9.843   2.250   0.000  0.00  0.00    -0.336 N 
ATOM     11  H   UNL     1       9.843   0.750   0.000  0.00  0.00    +0.147 HD
ATOM     12  C   UNL     1      11.142   3.000   0.000  0.00  0.00    +0.157 C 
ATOM     13  C   UNL     1      11.142   4.500   0.000  0.00  0.00    +0.066 C 
ATOM     20  N   UNL     1       9.843   5.250   0.000  0.00  0.00    -0.245 NA
ATOM     21  C   UNL     1       8.544   4.500   0.000  0.00  0.00    +0.124 A 
ATOM     22  C   UNL     1       7.245   5.250   0.000  0.00  0.00    +0.146 A 
ATOM     26  N   UNL     1       5.946   4.500   0.000  0.00  0.00    -0.215 NA
ATOM     27  O   UNL     1       3.348   4.500   0.000  0.00  0.00    -0.226 OA
ENDROOT
BRANCH  13  14
ATOM     14  C   UNL     1      12.441   5.250   0.000  0.00  0.00    -0.002 A 
ATOM     15  C   UNL     1      13.740   4.500   0.000  0.00  0.00    +0.010 A 
ATOM     16  C   UNL     1      15.039   5.250   0.000  0.00  0.00    +0.001 A 
ATOM     17  C   UNL     1      15.039   6.750   0.000  0.00  0.00    +0.000 A 
ATOM     18  C   UNL     1      13.740   7.500   0.000  0.00  0.00    +0.001 A 
ATOM     19  C   UNL     1      12.441   6.750   0.000  0.00  0.00    +0.010 A 
ENDBRANCH  13  14
BRANCH  22  23
ATOM     23  N   UNL     1       7.245   6.750   0.000  0.00  0.00    -0.341 N 
ATOM     24  H   UNL     1       6.393   7.242   0.000  0.00  0.00    +0.144 HD
ATOM     25  H   UNL     1       8.098   7.242   0.000  0.00  0.00    +0.144 HD
ENDBRANCH  22  23
BRANCH   4   1
ATOM      1  O   UNL     1       2.049   2.250   0.000  0.00  0.00    -0.450 OA
BRANCH   1   2
ATOM      2  C   UNL     1       0.750   3.000   0.000  0.00  0.00    +0.230 C 
ATOM      3  C   UNL     1       0.750   4.500   0.000  0.00  0.00    +0.048 C 
ENDBRANCH   1   2
ENDBRANCH   4   1
TORSDOF 4