REMARK  Name = 375981
REMARK  6 active torsions:
REMARK  status: ('A' for Active; 'I' for Inactive)
REMARK    1  A    between atoms: C_1  and  N_22
REMARK    2  A    between atoms: C_6  and  C_7
REMARK    3  A    between atoms: C_9  and  N_23
REMARK    4  A    between atoms: C_13  and  O_24
REMARK    5  A    between atoms: C_14  and  N_25
REMARK    6  A    between atoms: C_16  and  C_17
REMARK                            x       y       z     vdW  Elec       q    Type
REMARK                         _______ _______ _______ _____ _____    ______ ____
ROOT
ATOM     11  C   UNL     1       9.000   2.049   0.000  0.00  0.00    +0.037 A 
ATOM     12  C   UNL     1       9.750   0.750   0.000  0.00  0.00    +0.025 A 
ATOM     13  C   UNL     1      11.250   0.750   0.000  0.00  0.00    +0.029 A 
ATOM     14  C   UNL     1      12.000   2.049   0.000  0.00  0.00    +0.076 A 
ATOM     24  C   UNL     1      11.250   3.348   0.000  0.00  0.00    +0.140 A 
ATOM     27  C   UNL     1       9.750   3.348   0.000  0.00  0.00    +0.070 A 
ENDROOT
BRANCH  11   9
ATOM      8  C   UNL     1       6.750   3.348   0.000  0.00  0.00    +0.248 C 
ATOM      9  N   UNL     1       7.500   2.049   0.000  0.00  0.00    -0.281 N 
ATOM     10  H   UNL     1       7.008   1.196   0.000  0.00  0.00    +0.155 HD
ATOM     28  O   UNL     1       7.500   4.647   0.000  0.00  0.00    -0.270 OA
BRANCH   8   7
ATOM      1  C   UNL     1       2.250   3.348   0.000  0.00  0.00    +0.025 A 
ATOM      5  C   UNL     1       3.000   2.049   0.000  0.00  0.00    +0.023 A 
ATOM      6  C   UNL     1       4.500   2.049   0.000  0.00  0.00    +0.015 A 
ATOM      7  C   UNL     1       5.250   3.348   0.000  0.00  0.00    +0.037 A 
ATOM     29  C   UNL     1       4.500   4.647   0.000  0.00  0.00    +0.015 A 
ATOM     30  C   UNL     1       3.000   4.647   0.000  0.00  0.00    +0.023 A 
BRANCH   1   2
ATOM      2  N   UNL     1       0.750   3.348   0.000  0.00  0.00    -0.358 N 
ATOM      3  H   UNL     1       0.258   2.495   0.000  0.00  0.00    +0.142 HD
ATOM      4  H   UNL     1       0.258   4.201   0.000  0.00  0.00    +0.142 HD
ENDBRANCH   1   2
ENDBRANCH   8   7
ENDBRANCH  11   9
BRANCH  14  15
ATOM     15  N   UNL     1      13.500   2.049   0.000  0.00  0.00    -0.276 N 
ATOM     16  H   UNL     1      13.992   1.196   0.000  0.00  0.00    +0.155 HD
ATOM     17  C   UNL     1      14.250   3.348   0.000  0.00  0.00    +0.284 C 
ATOM     23  O   UNL     1      13.500   4.647   0.000  0.00  0.00    -0.266 OA
BRANCH  17  18
ATOM     18  C   UNL     1      15.750   3.348   0.000  0.00  0.00    +0.189 A 
ATOM     19  O   UNL     1      16.632   2.135   0.000  0.00  0.00    -0.458 OA
ATOM     20  C   UNL     1      18.058   2.598   0.000  0.00  0.00    +0.196 A 
ATOM     21  C   UNL     1      18.058   4.098   0.000  0.00  0.00    +0.042 A 
ATOM     22  C   UNL     1      16.632   4.562   0.000  0.00  0.00    +0.054 A 
ENDBRANCH  17  18
ENDBRANCH  14  15
BRANCH  24  25
ATOM     25  O   UNL     1      12.000   4.647   0.000  0.00  0.00    -0.505 OA
ATOM     26  H   UNL     1      12.937   4.647   0.000  0.00  0.00    +0.292 HD
ENDBRANCH  24  25
TORSDOF 6