REMARK  Name = 23895
REMARK  4 active torsions:
REMARK  status: ('A' for Active; 'I' for Inactive)
REMARK    1  A    between atoms: N_1  and  C_9
REMARK    2  A    between atoms: C_8  and  O_16
REMARK    3  A    between atoms: C_11  and  C_13
REMARK    4  A    between atoms: C_13  and  O_15
REMARK                            x       y       z     vdW  Elec       q    Type
REMARK                         _______ _______ _______ _____ _____    ______ ____
ROOT
ATOM      2  C   UNL     1       6.221  -1.226   0.000  0.00  0.00    +0.033 A 
ATOM      3  C   UNL     1       4.922  -1.976   0.000  0.00  0.00    +0.024 A 
ATOM      4  C   UNL     1       3.623  -1.226   0.000  0.00  0.00    +0.020 A 
ATOM      5  C   UNL     1       3.623   0.275   0.000  0.00  0.00    +0.100 A 
ATOM     10  C   UNL     1       4.922   1.025   0.000  0.00  0.00    +0.133 A 
ATOM     13  C   UNL     1       6.221   0.275   0.000  0.00  0.00    +0.069 A 
ENDROOT
BRANCH   2   1
ATOM      1  N   UNL     1       7.520  -1.976   0.000  0.00  0.00    -0.330 N 
ATOM     14  C   UNL     1       7.520  -3.475   0.000  0.00  0.00    +0.105 C 
ATOM     15  C   UNL     1       8.819  -4.226   0.000  0.00  0.00    +0.019 C 
ATOM     16  C   UNL     1      10.118  -3.475   0.000  0.00  0.00    +0.003 C 
ATOM     17  C   UNL     1      10.118  -1.976   0.000  0.00  0.00    +0.019 C 
ATOM     18  C   UNL     1       8.819  -1.226   0.000  0.00  0.00    +0.105 C 
ENDBRANCH   2   1
BRANCH   5   6
ATOM      6  C   UNL     1       2.324   1.025   0.000  0.00  0.00    +0.340 C 
ATOM      9  O   UNL     1       2.324   2.525   0.000  0.00  0.00    -0.245 OA
BRANCH   6   7
ATOM      7  O   UNL     1       1.025   0.275   0.000  0.00  0.00    -0.477 OA
ATOM      8  H   UNL     1       0.213   0.743   0.000  0.00  0.00    +0.295 HD
ENDBRANCH   6   7
ENDBRANCH   5   6
BRANCH  10  11
ATOM     11  O   UNL     1       4.922   2.525   0.000  0.00  0.00    -0.506 OA
ATOM     12  H   UNL     1       5.733   2.993   0.000  0.00  0.00    +0.292 HD
ENDBRANCH  10  11
TORSDOF 4