REMARK  Name = 303603
REMARK  5 active torsions:
REMARK  status: ('A' for Active; 'I' for Inactive)
REMARK    1  A    between atoms: C_3  and  C_11
REMARK    2  A    between atoms: C_4  and  N_8
REMARK    3  A    between atoms: N_6  and  C_12
REMARK    4  A    between atoms: C_12  and  C_13
REMARK    5  A    between atoms: C_13  and  O_14
REMARK                            x       y       z     vdW  Elec       q    Type
REMARK                         _______ _______ _______ _____ _____    ______ ____
ROOT
ATOM      1  C   UNL     1      -0.059  -3.882   0.000  0.00  0.00    +0.063 A 
ATOM      2  C   UNL     1       1.266  -3.180   0.000  0.00  0.00    +0.199 A 
ATOM     10  O   UNL     1       2.344  -4.223   0.000  0.00  0.00    -0.395 OA
ATOM     11  C   UNL     1       1.684  -5.570   0.000  0.00  0.00    +0.438 A 
ATOM     15  C   UNL     1       0.199  -5.359   0.000  0.00  0.00    +0.132 A 
ENDROOT
BRANCH   2   3
ATOM      3  C   UNL     1       1.477  -1.694   0.000  0.00  0.00    +0.362 C 
ATOM      4  N   UNL     1       2.869  -1.135   0.000  0.00  0.00    -0.205 N 
ATOM      9  O   UNL     1       4.049  -2.060   0.000  0.00  0.00    -0.625 OA
BRANCH   4   5
ATOM      5  C   UNL     1       3.080   0.350   0.000  0.00  0.00    +0.391 C 
BRANCH   5   6
ATOM      6  C   UNL     1       1.899   1.276   0.000  0.00  0.00    +0.228 C 
BRANCH   6   7
ATOM      7  O   UNL     1       2.110   2.761   0.000  0.00  0.00    -0.389 OA
ATOM      8  H   UNL     1       3.010   3.123   0.000  0.00  0.00    +0.210 HD
ENDBRANCH   6   7
ENDBRANCH   5   6
ENDBRANCH   4   5
ENDBRANCH   2   3
BRANCH  11  12
ATOM     12  N   UNL     1       2.386  -6.896   0.000  0.00  0.00    +0.119 N 
ATOM     13  O   UNL     1       3.885  -6.950   0.000  0.00  0.00    +0.045 OA
ATOM     14  O   UNL     1       1.589  -8.167   0.000  0.00  0.00    -0.573 OA
ENDBRANCH  11  12
TORSDOF 5