REMARK  Name = 408734
REMARK  5 active torsions:
REMARK  status: ('A' for Active; 'I' for Inactive)
REMARK    1  A    between atoms: N_3  and  C_6
REMARK    2  A    between atoms: N_4  and  C_10
REMARK    3  A    between atoms: C_7  and  N_17
REMARK    4  A    between atoms: C_11  and  C_18
REMARK    5  A    between atoms: C_18  and  O_20
REMARK                            x       y       z     vdW  Elec       q    Type
REMARK                         _______ _______ _______ _____ _____    ______ ____
ROOT
ATOM      1  N   UNL     1      -4.601   4.608   0.000  0.00  0.00    -0.198 NA
ATOM      2  C   UNL     1      -3.992   5.979   0.000  0.00  0.00    +0.216 A 
ATOM      3  N   UNL     1      -4.875   7.191   0.000  0.00  0.00    -0.327 N 
ATOM      4  H   UNL     1      -5.854   7.087   0.000  0.00  0.00    +0.145 HD
ATOM      5  H   UNL     1      -4.476   8.091   0.000  0.00  0.00    +0.145 HD
ATOM      6  N   UNL     1      -2.501   6.138   0.000  0.00  0.00    -0.198 NA
ATOM      7  C   UNL     1      -1.617   4.925   0.000  0.00  0.00    +0.151 A 
ATOM     11  C   UNL     1      -2.226   3.554   0.000  0.00  0.00    +0.165 A 
ATOM     24  C   UNL     1      -3.717   3.395   0.000  0.00  0.00    +0.151 A 
ATOM     25  N   UNL     1      -4.326   2.024   0.000  0.00  0.00    -0.341 N 
ATOM     26  H   UNL     1      -3.746   1.229   0.000  0.00  0.00    +0.144 HD
ATOM     27  H   UNL     1      -5.305   1.920   0.000  0.00  0.00    +0.144 HD
ENDROOT
BRANCH   7   8
ATOM      8  N   UNL     1      -0.126   5.084   0.000  0.00  0.00    -0.341 N 
ATOM      9  H   UNL     1       0.273   5.984   0.000  0.00  0.00    +0.144 HD
ATOM     10  H   UNL     1       0.454   4.288   0.000  0.00  0.00    +0.144 HD
ENDBRANCH   7   8
BRANCH  11  12
ATOM     12  N   UNL     1      -1.343   2.342   0.000  0.00  0.00    -0.142 NA
ATOM     13  N   UNL     1       0.149   2.500   0.000  0.00  0.00    -0.149 NA
BRANCH  13  14
ATOM     14  C   UNL     1       1.229   1.460   0.000  0.00  0.00    +0.086 A 
ATOM     15  C   UNL     1       2.671   1.875   0.000  0.00  0.00    +0.030 A 
ATOM     16  C   UNL     1       3.751   0.834   0.000  0.00  0.00    +0.017 A 
ATOM     17  C   UNL     1       3.390  -0.622   0.000  0.00  0.00    +0.059 A 
ATOM     22  C   UNL     1       1.948  -1.037   0.000  0.00  0.00    +0.017 A 
ATOM     23  C   UNL     1       0.868   0.004   0.000  0.00  0.00    +0.030 A 
BRANCH  17  18
ATOM     18  C   UNL     1       4.470  -1.662   0.000  0.00  0.00    +0.337 C 
ATOM     21  O   UNL     1       4.109  -3.118   0.000  0.00  0.00    -0.245 OA
BRANCH  18  19
ATOM     19  O   UNL     1       5.912  -1.247   0.000  0.00  0.00    -0.477 OA
ATOM     20  H   UNL     1       6.586  -1.897   0.000  0.00  0.00    +0.295 HD
ENDBRANCH  18  19
ENDBRANCH  17  18
ENDBRANCH  13  14
ENDBRANCH  11  12
TORSDOF 5