REMARK  Name = 30622
REMARK  3 active torsions:
REMARK  status: ('A' for Active; 'I' for Inactive)
REMARK    1  A    between atoms: C_3  and  C_24
REMARK    2  A    between atoms: C_11  and  O_26
REMARK    3  A    between atoms: C_11  and  C_27
REMARK                            x       y       z     vdW  Elec       q    Type
REMARK                         _______ _______ _______ _____ _____    ______ ____
ROOT
ATOM      1  C   UNL     1       1.811  -4.112   0.000  0.00  0.00    -0.019 C 
ATOM      2  C   UNL     1       0.750  -5.172   0.000  0.00  0.00    +0.036 C 
ATOM      3  C   UNL     1       3.260  -4.500   0.000  0.00  0.00    +0.036 C 
ATOM      4  C   UNL     1       2.510  -5.799   0.000  0.00  0.00    +0.335 C 
ATOM      5  O   UNL     1       4.010  -5.799   0.000  0.00  0.00    -0.245 OA
ATOM      6  O   UNL     1       3.260  -7.098   0.000  0.00  0.00    -0.456 OA
ATOM      7  C   UNL     1       3.260  -8.598   0.000  0.00  0.00    +0.199 C 
ATOM      8  C   UNL     1       2.199  -9.659   0.000  0.00  0.00    +0.062 C 
ATOM      9  C   UNL     1       2.949 -10.958   0.000  0.00  0.00    +0.089 C 
ATOM     10  N   UNL     1       4.559 -10.848   0.000  0.00  0.00    -0.289 NA
ATOM     11  C   UNL     1       6.168 -10.958   0.000  0.00  0.00    +0.112 C 
ATOM     12  C   UNL     1       6.918  -9.659   0.000  0.00  0.00    -0.007 C 
ATOM     13  C   UNL     1       5.858  -8.598   0.000  0.00  0.00    -0.015 C 
ATOM     14  C   UNL     1       5.858  -7.098   0.000  0.00  0.00    +0.264 C 
ATOM     15  O   UNL     1       6.608  -5.799   0.000  0.00  0.00    -0.458 OA
ATOM     16  C   UNL     1       5.858  -4.500   0.000  0.00  0.00    +0.343 C 
ATOM     17  C   UNL     1       5.858  -3.000   0.000  0.00  0.00    +0.181 C 
ATOM     18  C   UNL     1       7.335  -3.261   0.000  0.00  0.00    +0.058 C 
ATOM     21  C   UNL     1       4.559  -2.250   0.000  0.00  0.00    -0.031 C 
ATOM     22  C   UNL     1       4.559  -0.750   0.000  0.00  0.00    +0.011 C 
ATOM     23  O   UNL     1       7.306  -4.112   0.000  0.00  0.00    -0.247 OA
ATOM     24  C   UNL     1       4.559  -9.348   0.000  0.00  0.00    +0.127 C 
ATOM     25  C   UNL     1       3.260  -3.000   0.000  0.00  0.00    +0.075 C 
ENDROOT
BRANCH  17  19
ATOM     19  O   UNL     1       6.371  -1.591   0.000  0.00  0.00    -0.374 OA
ATOM     20  H   UNL     1       7.326  -1.422   0.000  0.00  0.00    +0.211 HD
ENDBRANCH  17  19
TORSDOF 1