REMARK  Name = 319449
REMARK  7 active torsions:
REMARK  status: ('A' for Active; 'I' for Inactive)
REMARK    1  A    between atoms: N_7  and  O_10
REMARK    2  A    between atoms: O_10  and  C_20
REMARK    3  A    between atoms: C_13  and  C_20
REMARK    4  A    between atoms: C_14  and  O_15
REMARK    5  A    between atoms: O_15  and  C_24
REMARK    6  A    between atoms: C_17  and  C_21
REMARK    7  A    between atoms: C_21  and  C_23
REMARK                            x       y       z     vdW  Elec       q    Type
REMARK                         _______ _______ _______ _____ _____    ______ ____
ROOT
ATOM     10  O   UNL     1       1.400  -9.468   0.000  0.00  0.00    -0.389 OA
ENDROOT
BRANCH  10   9
ATOM      1  C   UNL     1      -4.601  -9.468   0.000  0.00  0.00    +0.001 A 
ATOM      2  C   UNL     1      -5.351 -10.767   0.000  0.00  0.00    +0.000 A 
ATOM      3  C   UNL     1      -4.601 -12.066   0.000  0.00  0.00    +0.005 A 
ATOM      4  C   UNL     1      -3.100 -12.066   0.000  0.00  0.00    -0.029 A 
ATOM      5  C   UNL     1      -2.350 -13.365   0.000  0.00  0.00    +0.105 C 
ATOM      6  S   UNL     1      -0.851 -13.365   0.000  0.00  0.00    -0.150 S 
ATOM      7  C   UNL     1      -0.101 -12.066   0.000  0.00  0.00    +0.128 C 
ATOM      8  C   UNL     1      -0.851 -10.767   0.000  0.00  0.00    +0.097 C 
ATOM      9  N   UNL     1      -0.101  -9.468   0.000  0.00  0.00    -0.088 NA
ATOM     23  C   UNL     1      -2.350 -10.767   0.000  0.00  0.00    +0.004 A 
ATOM     24  C   UNL     1      -3.100  -9.468   0.000  0.00  0.00    +0.010 A 
ENDBRANCH  10   9
BRANCH  10  11
ATOM     11  C   UNL     1       2.150  -8.169   0.000  0.00  0.00    +0.302 C 
BRANCH  11  12
ATOM     12  C   UNL     1       1.400  -6.870   0.000  0.00  0.00    +0.034 A 
ATOM     13  C   UNL     1       2.150  -5.571   0.000  0.00  0.00    +0.022 A 
ATOM     14  C   UNL     1       1.400  -4.272   0.000  0.00  0.00    +0.018 A 
ATOM     18  C   UNL     1      -0.101  -4.272   0.000  0.00  0.00    +0.015 A 
ATOM     19  C   UNL     1      -0.851  -5.571   0.000  0.00  0.00    +0.047 A 
ATOM     20  C   UNL     1      -0.101  -6.870   0.000  0.00  0.00    +0.127 A 
BRANCH  14  15
ATOM     15  C   UNL     1       2.150  -2.973   0.000  0.00  0.00    +0.160 C 
ATOM     16  C   UNL     1       1.400  -1.674   0.000  0.00  0.00    +0.091 C 
ATOM     17  O   UNL     1       3.650  -2.973   0.000  0.00  0.00    -0.292 OA
ENDBRANCH  14  15
BRANCH  20  21
ATOM     21  O   UNL     1      -0.851  -8.169   0.000  0.00  0.00    -0.495 OA
ATOM     22  C   UNL     1      -2.350  -8.169   0.000  0.00  0.00    +0.277 C 
ENDBRANCH  20  21
ENDBRANCH  11  12
ENDBRANCH  10  11
TORSDOF 5