REMARK  Name = 3076
REMARK  2 active torsions:
REMARK  status: ('A' for Active; 'I' for Inactive)
REMARK    1  A    between atoms: C_7  and  C_10
REMARK    2  A    between atoms: C_14  and  N_21
REMARK                            x       y       z     vdW  Elec       q    Type
REMARK                         _______ _______ _______ _____ _____    ______ ____
ROOT
ATOM      1  N   UNL     1       2.049  -5.250   0.000  0.00  0.00    -0.009 NA
ATOM      2  C   UNL     1       2.049  -3.750   0.000  0.00  0.00    +0.420 C 
ATOM      3  N   UNL     1       0.750  -3.000   0.000  0.00  0.00    -0.247 N 
ATOM      4  H   UNL     1      -0.103  -3.492   0.000  0.00  0.00    +0.241 HD
ATOM      5  H   UNL     1       0.750  -2.016   0.000  0.00  0.00    +0.241 HD
ATOM      6  N   UNL     1       3.348  -3.000   0.000  0.00  0.00    -0.069 NA
ATOM      7  C   UNL     1       4.647  -3.750   0.000  0.00  0.00    +0.368 C 
ATOM     14  N   UNL     1       4.647  -5.250   0.000  0.00  0.00    -0.198 N 
ATOM     15  H   UNL     1       5.500  -5.742   0.000  0.00  0.00    +0.248 HD
ATOM     16  C   UNL     1       3.348  -6.000   0.000  0.00  0.00    +0.383 C 
ATOM     17  N   UNL     1       3.348  -7.500   0.000  0.00  0.00    -0.206 N 
ATOM     18  H   UNL     1       2.495  -7.992   0.000  0.00  0.00    +0.251 HD
ENDROOT
BRANCH   7   8
ATOM      8  C   UNL     1       5.946  -3.000   0.000  0.00  0.00    +0.026 A 
ATOM      9  C   UNL     1       7.245  -3.750   0.000  0.00  0.00    +0.010 A 
ATOM     10  C   UNL     1       8.544  -3.000   0.000  0.00  0.00    +0.000 A 
ATOM     11  C   UNL     1       8.544  -1.500   0.000  0.00  0.00    +0.000 A 
ATOM     12  C   UNL     1       7.245  -0.750   0.000  0.00  0.00    +0.000 A 
ATOM     13  C   UNL     1       5.946  -1.500   0.000  0.00  0.00    +0.010 A 
ENDBRANCH   7   8
BRANCH  17  19
ATOM     19  C   UNL     1       4.647  -8.250   0.000  0.00  0.00    +0.092 A 
ATOM     20  C   UNL     1       4.647  -9.750   0.000  0.00  0.00    +0.040 A 
ATOM     21  C   UNL     1       5.946 -10.500   0.000  0.00  0.00    +0.003 A 
ATOM     22  C   UNL     1       7.245  -9.750   0.000  0.00  0.00    +0.000 A 
ATOM     23  C   UNL     1       7.245  -8.250   0.000  0.00  0.00    +0.003 A 
ATOM     24  C   UNL     1       5.946  -7.500   0.000  0.00  0.00    +0.040 A 
ENDBRANCH  17  19
TORSDOF 2