REMARK  Name = 210816
REMARK  3 active torsions:
REMARK  status: ('A' for Active; 'I' for Inactive)
REMARK    1  A    between atoms: C_3  and  N_18
REMARK    2  A    between atoms: C_9  and  C_16
REMARK    3  A    between atoms: C_12  and  N_13
REMARK                            x       y       z     vdW  Elec       q    Type
REMARK                         _______ _______ _______ _____ _____    ______ ____
ROOT
ATOM      6  N   UNL     1       4.821   6.649   0.000  0.00  0.00    -0.280 N 
ATOM      7  H   UNL     1       4.821   5.665   0.000  0.00  0.00    +0.155 HD
ATOM      8  C   UNL     1       3.522   7.399   0.000  0.00  0.00    +0.249 C 
ATOM      9  O   UNL     1       3.522   8.899   0.000  0.00  0.00    -0.270 OA
ENDROOT
BRANCH   6   5
ATOM      1  N   UNL     1       7.419   9.649   0.000  0.00  0.00    -0.261 NA
ATOM      2  C   UNL     1       8.718   8.899   0.000  0.00  0.00    +0.111 A 
ATOM      3  C   UNL     1       8.718   7.399   0.000  0.00  0.00    +0.021 A 
ATOM      4  C   UNL     1       7.419   6.649   0.000  0.00  0.00    +0.026 A 
ATOM      5  C   UNL     1       6.120   7.399   0.000  0.00  0.00    +0.052 A 
ATOM     19  C   UNL     1       6.120   8.899   0.000  0.00  0.00    +0.134 A 
ENDBRANCH   6   5
BRANCH   8  10
ATOM     10  C   UNL     1       2.223   6.649   0.000  0.00  0.00    +0.043 A 
ATOM     11  C   UNL     1       2.223   5.149   0.000  0.00  0.00    +0.097 A 
ATOM     12  C   UNL     1       0.924   4.399   0.000  0.00  0.00    +0.274 A 
ATOM     16  C   UNL     1      -0.375   5.149   0.000  0.00  0.00    +0.084 A 
ATOM     17  C   UNL     1      -0.375   6.649   0.000  0.00  0.00    +0.007 A 
ATOM     18  C   UNL     1       0.924   7.399   0.000  0.00  0.00    +0.013 A 
BRANCH  12  13
ATOM     13  N   UNL     1       0.924   2.900   0.000  0.00  0.00    +0.080 N 
ATOM     14  O   UNL     1       2.223   2.150   0.000  0.00  0.00    +0.041 OA
ATOM     15  O   UNL     1      -0.375   2.150   0.000  0.00  0.00    -0.576 OA
ENDBRANCH  12  13
ENDBRANCH   8  10
TORSDOF 3