REMARK  Name = 380279
REMARK  2 active torsions:
REMARK  status: ('A' for Active; 'I' for Inactive)
REMARK    1  A    between atoms: C_7  and  N_17
REMARK    2  A    between atoms: N_9  and  C_20
REMARK                            x       y       z     vdW  Elec       q    Type
REMARK                         _______ _______ _______ _____ _____    ______ ____
ROOT
ATOM      1  C   UNL     1       8.024   5.559   0.000  0.00  0.00    +0.137 C 
ATOM      2  N   UNL     1       7.142   4.345   0.000  0.00  0.00    -0.223 N 
ATOM      3  C   UNL     1       8.024   3.132   0.000  0.00  0.00    +0.317 C 
ATOM      4  O   UNL     1       7.560   1.705   0.000  0.00  0.00    -0.252 OA
ATOM      5  N   UNL     1       9.450   3.595   0.000  0.00  0.00    -0.231 N 
ATOM      6  C   UNL     1      10.664   2.713   0.000  0.00  0.00    +0.191 A 
ATOM      7  N   UNL     1      12.091   3.177   0.000  0.00  0.00    -0.126 NA
ATOM      8  N   UNL     1      12.972   1.964   0.000  0.00  0.00    -0.148 NA
ATOM      9  C   UNL     1      12.091   0.750   0.000  0.00  0.00    +0.183 A 
ATOM     10  S   UNL     1      10.664   1.214   0.000  0.00  0.00    -0.038 S 
ATOM     11  C   UNL     1       5.642   4.345   0.000  0.00  0.00    +0.211 A 
ATOM     12  N   UNL     1       4.760   3.132   0.000  0.00  0.00    -0.257 N 
ATOM     13  C   UNL     1       5.224   1.705   0.000  0.00  0.00    +0.158 C 
ATOM     14  C   UNL     1       3.334   3.595   0.000  0.00  0.00    +0.369 A 
ATOM     18  C   UNL     1       3.334   5.095   0.000  0.00  0.00    +0.219 A 
ATOM     19  N   UNL     1       4.760   5.559   0.000  0.00  0.00    -0.215 NA
ATOM     20  C   UNL     1       9.450   5.095   0.000  0.00  0.00    +0.137 C 
ENDROOT
BRANCH  14  15
ATOM     15  N   UNL     1       2.120   2.713   0.000  0.00  0.00    +0.100 N 
ATOM     16  O   UNL     1       2.277   1.222   0.000  0.00  0.00    +0.043 OA
ATOM     17  O   UNL     1       0.750   3.324   0.000  0.00  0.00    -0.575 OA
ENDBRANCH  14  15
TORSDOF 1