REMARK  Name = 37641
REMARK  8 active torsions:
REMARK  status: ('A' for Active; 'I' for Inactive)
REMARK    1  A    between atoms: C_8  and  C_32
REMARK    2  A    between atoms: C_8  and  C_33
REMARK    3  A    between atoms: C_9  and  C_28
REMARK    4  A    between atoms: C_11  and  C_31
REMARK    5  A    between atoms: C_13  and  O_26
REMARK    6  A    between atoms: C_18  and  C_27
REMARK    7  A    between atoms: C_28  and  C_29
REMARK    8  A    between atoms: C_29  and  O_30
REMARK                            x       y       z     vdW  Elec       q    Type
REMARK                         _______ _______ _______ _____ _____    ______ ____
ROOT
ATOM      1  O   UNL     1      -3.389 -17.525   0.000  0.00  0.00    -0.288 OA
ATOM      2  C   UNL     1      -2.779 -16.155   0.000  0.00  0.00    +0.179 C 
ATOM      3  C   UNL     1      -1.288 -15.998   0.000  0.00  0.00    +0.051 C 
ATOM      4  C   UNL     1      -0.677 -14.628   0.000  0.00  0.00    -0.053 C 
ATOM      5  C   UNL     1       0.814 -14.471   0.000  0.00  0.00    +0.032 C 
ATOM      6  C   UNL     1       1.425 -13.101   0.000  0.00  0.00    +0.011 C 
ATOM      7  C   UNL     1       0.543 -11.887   0.000  0.00  0.00    +0.034 C 
ATOM      8  C   UNL     1      -0.949 -12.044   0.000  0.00  0.00    +0.153 C 
ATOM      9  C   UNL     1      -1.831 -10.830   0.000  0.00  0.00    +0.154 C 
ATOM     12  C   UNL     1      -1.220  -9.460   0.000  0.00  0.00    +0.044 C 
ATOM     13  C   UNL     1       0.271  -9.303   0.000  0.00  0.00    +0.012 C 
ATOM     14  C   UNL     1      -0.479  -8.004   0.000  0.00  0.00    +0.015 C 
ATOM     15  C   UNL     1       1.153  -8.090   0.000  0.00  0.00    +0.164 C 
ATOM     21  C   UNL     1       2.579  -8.553   0.000  0.00  0.00    +0.162 C 
ATOM     22  C   UNL     1       2.579 -10.053   0.000  0.00  0.00    +0.039 C 
ATOM     23  O   UNL     1       3.461  -7.340   0.000  0.00  0.00    -0.338 OA
ATOM     24  C   UNL     1       2.579  -6.126   0.000  0.00  0.00    +0.195 C 
ATOM     31  C   UNL     1       1.969  -4.756   0.000  0.00  0.00    +0.080 C 
ATOM     32  O   UNL     1       1.153  -6.590   0.000  0.00  0.00    -0.328 OA
ATOM     33  F   UNL     1      -0.067 -13.257   0.000  0.00  0.00    -0.238 F 
ATOM     34  C   UNL     1       1.153 -10.517   0.000  0.00  0.00    +0.007 C 
ATOM     35  C   UNL     1      -1.559 -13.414   0.000  0.00  0.00    +0.044 C 
ATOM     36  C   UNL     1      -2.441 -12.201   0.000  0.00  0.00    +0.023 C 
ATOM     37  C   UNL     1      -3.051 -13.571   0.000  0.00  0.00    -0.009 C 
ATOM     38  C   UNL     1      -3.661 -14.941   0.000  0.00  0.00    +0.047 C 
ENDROOT
BRANCH  24  25
ATOM     25  C   UNL     1       3.879  -5.376   0.000  0.00  0.00    +0.011 A 
ATOM     26  C   UNL     1       5.178  -6.126   0.000  0.00  0.00    +0.009 A 
ATOM     27  C   UNL     1       6.477  -5.376   0.000  0.00  0.00    +0.000 A 
ATOM     28  C   UNL     1       6.477  -3.876   0.000  0.00  0.00    +0.000 A 
ATOM     29  C   UNL     1       5.178  -3.126   0.000  0.00  0.00    +0.000 A 
ATOM     30  C   UNL     1       3.878  -3.876   0.000  0.00  0.00    +0.009 A 
ENDBRANCH  24  25
BRANCH   9  10
ATOM     10  O   UNL     1      -3.322 -10.987   0.000  0.00  0.00    -0.389 OA
ATOM     11  H   UNL     1      -3.893 -10.202   0.000  0.00  0.00    +0.210 HD
ENDBRANCH   9  10
BRANCH  15  16
ATOM     16  C   UNL     1      -1.201  -7.325   0.000  0.00  0.00    +0.193 C 
ATOM     20  O   UNL     1      -1.513  -5.858   0.000  0.00  0.00    -0.292 OA
BRANCH  16  17
ATOM     17  C   UNL     1      -2.316  -8.329   0.000  0.00  0.00    +0.233 C 
BRANCH  17  18
ATOM     18  O   UNL     1      -3.742  -7.865   0.000  0.00  0.00    -0.387 OA
ATOM     19  H   UNL     1      -3.944  -6.916   0.000  0.00  0.00    +0.210 HD
ENDBRANCH  17  18
ENDBRANCH  16  17
ENDBRANCH  15  16
TORSDOF 5