REMARK  Name = 288519
REMARK  2 active torsions:
REMARK  status: ('A' for Active; 'I' for Inactive)
REMARK    1  A    between atoms: C_10  and  O_12
REMARK    2  A    between atoms: O_12  and  C_13
REMARK                            x       y       z     vdW  Elec       q    Type
REMARK                         _______ _______ _______ _____ _____    ______ ____
ROOT
ATOM      1  C   UNL     1       0.750   4.500   0.000  0.00  0.00    +0.116 A 
ATOM      2  C   UNL     1       0.750   3.000   0.000  0.00  0.00    +0.038 A 
ATOM      3  C   UNL     1       2.049   2.250   0.000  0.00  0.00    +0.101 A 
ATOM      4  N   UNL     1       3.348   3.000   0.000  0.00  0.00    -0.236 N 
ATOM      5  C   UNL     1       4.647   2.250   0.000  0.00  0.00    +0.360 A 
ATOM      6  O   UNL     1       4.647   0.750   0.000  0.00  0.00    -0.244 OA
ATOM      7  N   UNL     1       5.946   3.000   0.000  0.00  0.00    -0.139 NA
ATOM      8  C   UNL     1       5.946   4.500   0.000  0.00  0.00    +0.331 A 
ATOM     16  N   UNL     1       4.647   5.250   0.000  0.00  0.00    -0.158 NA
ATOM     17  C   UNL     1       3.348   4.500   0.000  0.00  0.00    +0.243 A 
ATOM     18  N   UNL     1       2.049   5.250   0.000  0.00  0.00    -0.220 NA
ENDROOT
BRANCH   8   9
ATOM      9  O   UNL     1       7.245   5.250   0.000  0.00  0.00    -0.423 OA
BRANCH   9  10
ATOM     10  C   UNL     1       8.544   4.500   0.000  0.00  0.00    +0.132 A 
ATOM     11  C   UNL     1       8.544   3.000   0.000  0.00  0.00    +0.046 A 
ATOM     12  C   UNL     1       9.843   2.250   0.000  0.00  0.00    +0.004 A 
ATOM     13  C   UNL     1      11.142   3.000   0.000  0.00  0.00    +0.000 A 
ATOM     14  C   UNL     1      11.142   4.500   0.000  0.00  0.00    +0.004 A 
ATOM     15  C   UNL     1       9.843   5.250   0.000  0.00  0.00    +0.046 A 
ENDBRANCH   9  10
ENDBRANCH   8   9
TORSDOF 2