REMARK  Name = 294154
REMARK  2 active torsions:
REMARK  status: ('A' for Active; 'I' for Inactive)
REMARK    1  A    between atoms: C_5  and  N_11
REMARK    2  A    between atoms: C_9  and  C_14
REMARK                            x       y       z     vdW  Elec       q    Type
REMARK                         _______ _______ _______ _____ _____    ______ ____
ROOT
ATOM      1 CL   UNL     1       2.977   0.853   0.000  0.00  0.00    -0.082 Cl
ATOM      2  C   UNL     1       4.276   0.103   0.000  0.00  0.00    +0.058 A 
ATOM      3  C   UNL     1       5.575   0.853   0.000  0.00  0.00    +0.025 A 
ATOM      4  C   UNL     1       6.874   0.103   0.000  0.00  0.00    +0.048 A 
ATOM      5  C   UNL     1       6.874  -1.397   0.000  0.00  0.00    +0.143 A 
ATOM      6  N   UNL     1       7.989  -2.401   0.000  0.00  0.00    -0.226 NA
ATOM      7  C   UNL     1       7.379  -3.771   0.000  0.00  0.00    +0.137 A 
ATOM      8  C   UNL     1       8.129  -5.070   0.000  0.00  0.00    +0.075 C 
ATOM      9  C   UNL     1       5.887  -3.614   0.000  0.00  0.00    +0.375 A 
ATOM     13  N   UNL     1       5.575  -2.147   0.000  0.00  0.00    -0.240 N 
ATOM     14  C   UNL     1       4.276  -1.397   0.000  0.00  0.00    +0.119 A 
ENDROOT
BRANCH   9  10
ATOM     10  N   UNL     1       4.883  -4.729   0.000  0.00  0.00    +0.101 N 
ATOM     11  O   UNL     1       5.347  -6.156   0.000  0.00  0.00    +0.043 OA
ATOM     12  O   UNL     1       3.416  -4.417   0.000  0.00  0.00    -0.575 OA
ENDBRANCH   9  10
TORSDOF 1