REMARK  Name = 34875
REMARK  4 active torsions:
REMARK  status: ('A' for Active; 'I' for Inactive)
REMARK    1  A    between atoms: C_4  and  O_20
REMARK    2  A    between atoms: C_5  and  C_6
REMARK    3  A    between atoms: C_8  and  O_18
REMARK    4  A    between atoms: C_15  and  O_19
REMARK                            x       y       z     vdW  Elec       q    Type
REMARK                         _______ _______ _______ _____ _____    ______ ____
ROOT
ATOM      8  C   UNL     1       3.522   5.899   0.000  0.00  0.00    +0.211 C 
ATOM      9  C   UNL     1       3.522   4.399   0.000  0.00  0.00    +0.129 C 
ATOM     10  C   UNL     1       2.223   3.650   0.000  0.00  0.00    +0.174 C 
ATOM     11  O   UNL     1       2.223   2.150   0.000  0.00  0.00    -0.292 OA
ATOM     12  C   UNL     1       0.924   4.399   0.000  0.00  0.00    +0.101 A 
ATOM     13  C   UNL     1      -0.375   3.650   0.000  0.00  0.00    +0.134 A 
ATOM     16  C   UNL     1      -1.674   4.399   0.000  0.00  0.00    +0.091 A 
ATOM     17  C   UNL     1      -1.674   5.899   0.000  0.00  0.00    +0.124 A 
ATOM     20  C   UNL     1      -0.375   6.649   0.000  0.00  0.00    +0.092 A 
ATOM     21  C   UNL     1       0.924   5.899   0.000  0.00  0.00    +0.139 A 
ATOM     22  O   UNL     1       2.223   6.649   0.000  0.00  0.00    -0.483 OA
ENDROOT
BRANCH   8   7
ATOM      1  C   UNL     1       6.120   8.899   0.000  0.00  0.00    +0.046 A 
ATOM      2  C   UNL     1       7.419   8.149   0.000  0.00  0.00    +0.117 A 
ATOM      5  C   UNL     1       7.419   6.649   0.000  0.00  0.00    +0.046 A 
ATOM      6  C   UNL     1       6.120   5.899   0.000  0.00  0.00    +0.011 A 
ATOM      7  C   UNL     1       4.821   6.649   0.000  0.00  0.00    -0.007 A 
ATOM     23  C   UNL     1       4.821   8.149   0.000  0.00  0.00    +0.011 A 
BRANCH   2   3
ATOM      3  O   UNL     1       8.718   8.899   0.000  0.00  0.00    -0.507 OA
ATOM      4  H   UNL     1       9.530   8.431   0.000  0.00  0.00    +0.292 HD
ENDBRANCH   2   3
ENDBRANCH   8   7
BRANCH  13  14
ATOM     14  O   UNL     1      -0.375   2.150   0.000  0.00  0.00    -0.506 OA
ATOM     15  H   UNL     1      -1.186   1.681   0.000  0.00  0.00    +0.292 HD
ENDBRANCH  13  14
BRANCH  17  18
ATOM     18  O   UNL     1      -2.973   6.649   0.000  0.00  0.00    -0.507 OA
ATOM     19  H   UNL     1      -2.973   7.586   0.000  0.00  0.00    +0.292 HD
ENDBRANCH  17  18
TORSDOF 4