REMARK  Name = 296934
REMARK  6 active torsions:
REMARK  status: ('A' for Active; 'I' for Inactive)
REMARK    1  A    between atoms: C_2  and  C_19
REMARK    2  A    between atoms: N_5  and  C_19
REMARK    3  A    between atoms: N_9  and  C_20
REMARK    4  A    between atoms: N_11  and  C_21
REMARK    5  A    between atoms: C_12  and  C_20
REMARK    6  A    between atoms: C_16  and  C_21
REMARK                            x       y       z     vdW  Elec       q    Type
REMARK                         _______ _______ _______ _____ _____    ______ ____
ROOT
ATOM      5  N   UNL     1       5.022  -2.699   0.000  0.00  0.00    -0.243 N 
ATOM      6  C   UNL     1       5.022  -4.199   0.000  0.00  0.00    +0.337 A 
ATOM      7  N   UNL     1       6.321  -4.949   0.000  0.00  0.00    -0.243 N 
ATOM     12  C   UNL     1       7.620  -4.199   0.000  0.00  0.00    +0.337 A 
ATOM     13  O   UNL     1       8.919  -4.949   0.000  0.00  0.00    -0.246 OA
ATOM     14  N   UNL     1       7.620  -2.699   0.000  0.00  0.00    -0.243 N 
ATOM     19  O   UNL     1       3.723  -4.949   0.000  0.00  0.00    -0.246 OA
ATOM     20  C   UNL     1       6.321  -1.949   0.000  0.00  0.00    +0.337 A 
ATOM     21  O   UNL     1       6.321  -0.449   0.000  0.00  0.00    -0.246 OA
ENDROOT
BRANCH   5   4
ATOM      4  C   UNL     1       3.723  -1.949   0.000  0.00  0.00    +0.165 C 
BRANCH   4   3
ATOM      1  O   UNL     1       4.473   0.851   0.000  0.00  0.00    -0.370 OA
ATOM      2  C   UNL     1       2.973   0.851   0.000  0.00  0.00    +0.193 C 
ATOM      3  C   UNL     1       3.723  -0.449   0.000  0.00  0.00    +0.164 C 
ENDBRANCH   4   3
ENDBRANCH   5   4
BRANCH   7   8
ATOM      8  C   UNL     1       6.321  -6.449   0.000  0.00  0.00    +0.165 C 
BRANCH   8   9
ATOM      9  C   UNL     1       7.620  -7.199   0.000  0.00  0.00    +0.164 C 
ATOM     10  C   UNL     1       8.370  -8.498   0.000  0.00  0.00    +0.193 C 
ATOM     11  O   UNL     1       9.120  -7.199   0.000  0.00  0.00    -0.370 OA
ENDBRANCH   8   9
ENDBRANCH   7   8
BRANCH  14  15
ATOM     15  C   UNL     1       8.919  -1.949   0.000  0.00  0.00    +0.165 C 
BRANCH  15  16
ATOM     16  C   UNL     1       8.919  -0.449   0.000  0.00  0.00    +0.164 C 
ATOM     17  C   UNL     1       9.669   0.851   0.000  0.00  0.00    +0.193 C 
ATOM     18  O   UNL     1       8.169   0.851   0.000  0.00  0.00    -0.370 OA
ENDBRANCH  15  16
ENDBRANCH  14  15
TORSDOF 6