REMARK  Name = 23248
REMARK  4 active torsions:
REMARK  status: ('A' for Active; 'I' for Inactive)
REMARK    1  A    between atoms: C_4  and  C_16
REMARK    2  A    between atoms: C_10  and  C_13
REMARK    3  A    between atoms: C_11  and  N_15
REMARK    4  A    between atoms: C_12  and  C_14
REMARK                            x       y       z     vdW  Elec       q    Type
REMARK                         _______ _______ _______ _____ _____    ______ ____
ROOT
ATOM      6  N   UNL     1      -3.522  -5.899   0.000  0.00  0.00    -0.266 N 
ATOM      7  H   UNL     1      -2.669  -6.392   0.000  0.00  0.00    +0.157 HD
ATOM      8  C   UNL     1      -3.522  -4.399   0.000  0.00  0.00    +0.249 C 
ATOM      9  O   UNL     1      -4.821  -3.650   0.000  0.00  0.00    -0.270 OA
ENDROOT
BRANCH   6   5
ATOM      1  N   UNL     1      -7.419  -8.149   0.000  0.00  0.00    -0.237 NA
ATOM      2  C   UNL     1      -6.120  -8.899   0.000  0.00  0.00    +0.128 A 
ATOM      3  C   UNL     1      -6.120 -10.400   0.000  0.00  0.00    +0.088 C 
ATOM      4  N   UNL     1      -4.821  -8.149   0.000  0.00  0.00    -0.217 NA
ATOM      5  C   UNL     1      -4.821  -6.649   0.000  0.00  0.00    +0.129 A 
ATOM     16  C   UNL     1      -6.120  -5.899   0.000  0.00  0.00    +0.067 A 
ATOM     17  C   UNL     1      -7.419  -6.649   0.000  0.00  0.00    +0.044 A 
ATOM     18  C   UNL     1      -8.718  -5.899   0.000  0.00  0.00    +0.066 C 
ENDBRANCH   6   5
BRANCH   8  10
ATOM     10  C   UNL     1      -2.223  -3.650   0.000  0.00  0.00    +0.037 A 
ATOM     11  C   UNL     1      -0.924  -4.399   0.000  0.00  0.00    +0.013 A 
ATOM     12  C   UNL     1       0.375  -3.650   0.000  0.00  0.00    +0.001 A 
ATOM     13  C   UNL     1       0.375  -2.150   0.000  0.00  0.00    +0.000 A 
ATOM     14  C   UNL     1      -0.924  -1.400   0.000  0.00  0.00    +0.001 A 
ATOM     15  C   UNL     1      -2.223  -2.150   0.000  0.00  0.00    +0.013 A 
ENDBRANCH   8  10
TORSDOF 2