REMARK  Name = 292826
REMARK  3 active torsions:
REMARK  status: ('A' for Active; 'I' for Inactive)
REMARK    1  A    between atoms: C_16  and  N_17
REMARK    2  A    between atoms: N_17  and  C_18
REMARK    3  A    between atoms: N_17  and  C_19
REMARK                            x       y       z     vdW  Elec       q    Type
REMARK                         _______ _______ _______ _____ _____    ______ ____
ROOT
ATOM      1  F   UNL     1      -5.587  -7.325   0.000  0.00  0.00    -0.205 F 
ATOM      2  C   UNL     1      -4.287  -8.075   0.000  0.00  0.00    +0.127 A 
ATOM      3  C   UNL     1      -4.287  -9.575   0.000  0.00  0.00    +0.078 A 
ATOM      4  C   UNL     1      -2.989 -10.325   0.000  0.00  0.00    +0.150 A 
ATOM      5  F   UNL     1      -2.989 -11.825   0.000  0.00  0.00    -0.203 F 
ATOM      6  C   UNL     1      -1.689  -9.575   0.000  0.00  0.00    +0.083 A 
ATOM      7  N   UNL     1      -0.263 -10.039   0.000  0.00  0.00    -0.355 N 
ATOM      8  H   UNL     1       0.201 -11.466   0.000  0.00  0.00    +0.166 HD
ATOM      9  C   UNL     1       0.619  -8.825   0.000  0.00  0.00    +0.020 A 
ATOM     10  C   UNL     1       2.111  -8.669   0.000  0.00  0.00    +0.055 C 
ATOM     11  C   UNL     1       2.721  -7.298   0.000  0.00  0.00    +0.025 C 
ATOM     12  C   UNL     1       1.839  -6.085   0.000  0.00  0.00    +0.061 C 
ATOM     16  C   UNL     1       0.347  -6.242   0.000  0.00  0.00    +0.056 C 
ATOM     17  C   UNL     1      -0.263  -7.612   0.000  0.00  0.00    -0.017 A 
ATOM     18  C   UNL     1      -1.689  -8.075   0.000  0.00  0.00    +0.009 A 
ATOM     19  C   UNL     1      -2.989  -7.325   0.000  0.00  0.00    +0.048 A 
ENDROOT
BRANCH  12  13
ATOM     13  N   UNL     1       2.449  -4.714   0.000  0.00  0.00    -0.305 NA
ATOM     14  C   UNL     1       1.567  -3.501   0.000  0.00  0.00    +0.104 C 
ATOM     15  C   UNL     1       3.941  -4.558   0.000  0.00  0.00    +0.104 C 
ENDBRANCH  12  13
TORSDOF 1