REMARK  Name = 369986
REMARK  5 active torsions:
REMARK  status: ('A' for Active; 'I' for Inactive)
REMARK    1  A    between atoms: N_10  and  C_21
REMARK    2  A    between atoms: C_12  and  C_21
REMARK    3  A    between atoms: N_14  and  N_22
REMARK    4  A    between atoms: C_15  and  C_23
REMARK    5  A    between atoms: C_16  and  O_24
REMARK                            x       y       z     vdW  Elec       q    Type
REMARK                         _______ _______ _______ _____ _____    ______ ____
ROOT
ATOM      9  C   UNL     1       2.603  -4.814   0.000  0.00  0.00    +0.255 C 
ATOM     10  N   UNL     1       1.871  -3.505   0.000  0.00  0.00    -0.205 N 
ATOM     11  H   UNL     1       0.891  -3.405   0.000  0.00  0.00    +0.177 HD
ATOM     22  O   UNL     1       4.102  -4.835   0.000  0.00  0.00    -0.272 OA
ENDROOT
BRANCH  10  12
ATOM     12  N   UNL     1       2.851  -2.369   0.000  0.00  0.00    -0.188 NA
ATOM     13  C   UNL     1       4.324  -2.651   0.000  0.00  0.00    +0.142 C 
BRANCH  13  14
ATOM     14  C   UNL     1       5.305  -1.515   0.000  0.00  0.00    +0.036 A 
ATOM     15  C   UNL     1       6.778  -1.796   0.000  0.00  0.00    +0.013 A 
ATOM     16  C   UNL     1       7.758  -0.661   0.000  0.00  0.00    +0.001 A 
ATOM     17  C   UNL     1       7.265   0.756   0.000  0.00  0.00    +0.004 A 
ATOM     18  C   UNL     1       5.792   1.037   0.000  0.00  0.00    +0.046 A 
ATOM     19  C   UNL     1       4.811  -0.099   0.000  0.00  0.00    +0.125 A 
BRANCH  19  20
ATOM     20  O   UNL     1       3.338   0.183   0.000  0.00  0.00    -0.506 OA
ATOM     21  H   UNL     1       3.030   1.068   0.000  0.00  0.00    +0.292 HD
ENDBRANCH  19  20
ENDBRANCH  13  14
ENDBRANCH  10  12
BRANCH   9   8
ATOM      8  C   UNL     1       1.834  -6.103   0.000  0.00  0.00    +0.265 C 
BRANCH   8   7
ATOM      1  C   UNL     1       3.911 -14.021   0.000  0.00  0.00    +0.003 C 
ATOM      2  C   UNL     1       2.572 -13.345   0.000  0.00  0.00    +0.019 C 
ATOM      3  C   UNL     1       2.488 -11.847   0.000  0.00  0.00    +0.108 C 
ATOM      4  N   UNL     1       3.743 -11.026   0.000  0.00  0.00    -0.297 N 
ATOM      5  C   UNL     1       3.660  -9.528   0.000  0.00  0.00    +0.258 A 
ATOM      6  N   UNL     1       2.399  -8.715   0.000  0.00  0.00    -0.114 NA
ATOM      7  N   UNL     1       2.782  -7.265   0.000  0.00  0.00    -0.153 N 
ATOM     23  N   UNL     1       4.280  -7.182   0.000  0.00  0.00    -0.044 NA
ATOM     24  N   UNL     1       4.822  -8.580   0.000  0.00  0.00    -0.092 NA
ATOM     25  C   UNL     1       5.082 -11.702   0.000  0.00  0.00    +0.108 C 
ATOM     26  C   UNL     1       5.166 -13.200   0.000  0.00  0.00    +0.019 C 
ENDBRANCH   8   7
ENDBRANCH   9   8
TORSDOF 5