REMARK  Name = 30260
REMARK  6 active torsions:
REMARK  status: ('A' for Active; 'I' for Inactive)
REMARK    1  A    between atoms: C_2  and  O_19
REMARK    2  A    between atoms: S_10  and  C_11
REMARK    3  A    between atoms: S_10  and  N_22
REMARK    4  A    between atoms: C_14  and  N_23
REMARK    5  A    between atoms: O_19  and  C_20
REMARK    6  A    between atoms: C_20  and  C_21
REMARK                            x       y       z     vdW  Elec       q    Type
REMARK                         _______ _______ _______ _____ _____    ______ ____
ROOT
ATOM      1  C   UNL     1     -12.198   5.078   0.000  0.00  0.00    +0.047 A 
ATOM      2  C   UNL     1     -10.698   5.078   0.000  0.00  0.00    +0.021 A 
ATOM      3  C   UNL     1      -9.948   3.779   0.000  0.00  0.00    +0.041 A 
ATOM      4  S   UNL     1      -8.480   3.467   0.000  0.00  0.00    -0.051 S 
ATOM      5  C   UNL     1      -8.324   1.976   0.000  0.00  0.00    +0.179 A 
ATOM      6  N   UNL     1      -7.024   1.226   0.000  0.00  0.00    -0.194 N 
ATOM      7  H   UNL     1      -6.172   1.718   0.000  0.00  0.00    +0.176 HD
ATOM     20  N   UNL     1      -9.694   1.365   0.000  0.00  0.00    -0.224 NA
ATOM     21  C   UNL     1     -10.698   2.480   0.000  0.00  0.00    +0.084 A 
ATOM     22  C   UNL     1     -12.198   2.480   0.000  0.00  0.00    +0.074 A 
ATOM     23  C   UNL     1     -12.948   3.779   0.000  0.00  0.00    +0.123 A 
ENDROOT
BRANCH   6   8
ATOM      8  S   UNL     1      -7.024  -0.275   0.000  0.00  0.00    +0.074 S 
ATOM      9  O   UNL     1      -7.024  -1.775   0.000  0.00  0.00    -0.150 OA
ATOM     10  O   UNL     1      -8.524  -0.275   0.000  0.00  0.00    -0.150 OA
BRANCH   8  11
ATOM     11  C   UNL     1      -5.524  -0.275   0.000  0.00  0.00    +0.109 A 
ATOM     12  C   UNL     1      -4.774   1.025   0.000  0.00  0.00    +0.030 A 
ATOM     13  C   UNL     1      -3.275   1.025   0.000  0.00  0.00    +0.024 A 
ATOM     14  C   UNL     1      -2.525  -0.275   0.000  0.00  0.00    +0.025 A 
ATOM     18  C   UNL     1      -3.275  -1.574   0.000  0.00  0.00    +0.024 A 
ATOM     19  C   UNL     1      -4.774  -1.574   0.000  0.00  0.00    +0.030 A 
BRANCH  14  15
ATOM     15  N   UNL     1      -1.025  -0.275   0.000  0.00  0.00    -0.358 N 
ATOM     16  H   UNL     1      -0.532   0.578   0.000  0.00  0.00    +0.142 HD
ATOM     17  H   UNL     1      -0.532  -1.127   0.000  0.00  0.00    +0.142 HD
ENDBRANCH  14  15
ENDBRANCH   8  11
ENDBRANCH   6   8
BRANCH  23  24
ATOM     24  O   UNL     1     -14.448   3.779   0.000  0.00  0.00    -0.492 OA
BRANCH  24  25
ATOM     25  C   UNL     1     -15.198   5.078   0.000  0.00  0.00    +0.225 C 
ATOM     26  C   UNL     1     -16.698   5.078   0.000  0.00  0.00    +0.048 C 
ENDBRANCH  24  25
ENDBRANCH  23  24
TORSDOF 5