REMARK  Name = 36693
REMARK  7 active torsions:
REMARK  status: ('A' for Active; 'I' for Inactive)
REMARK    1  A    between atoms: C_2  and  C_15
REMARK    2  A    between atoms: C_3  and  C_8
REMARK    3  A    between atoms: C_3  and  O_20
REMARK    4  A    between atoms: C_4  and  C_16
REMARK    5  A    between atoms: C_8  and  C_9
REMARK    6  A    between atoms: C_9  and  C_10
REMARK    7  A    between atoms: C_17  and  C_25
REMARK                            x       y       z     vdW  Elec       q    Type
REMARK                         _______ _______ _______ _____ _____    ______ ____
ROOT
ATOM      1  C   UNL     1      -9.772   5.003   0.000  0.00  0.00    +0.051 C 
ATOM      2  C   UNL     1      -8.473   5.753   0.000  0.00  0.00    +0.182 C 
ATOM      3  O   UNL     1      -8.085   7.202   0.000  0.00  0.00    -0.461 OA
ATOM      4  C   UNL     1      -6.585   7.202   0.000  0.00  0.00    +0.314 C 
ATOM      5  O   UNL     1      -5.791   8.475   0.000  0.00  0.00    -0.250 OA
ATOM      6  C   UNL     1      -5.875   5.753   0.000  0.00  0.00    +0.072 C 
ATOM      7  C   UNL     1      -4.779   6.777   0.000  0.00  0.00    +0.023 C 
ATOM      8  C   UNL     1      -4.576   5.003   0.000  0.00  0.00    +0.018 C 
ATOM      9  C   UNL     1      -4.576   3.503   0.000  0.00  0.00    +0.002 C 
ATOM     10  C   UNL     1      -5.875   2.753   0.000  0.00  0.00    +0.010 C 
ATOM     11  C   UNL     1      -7.174   3.503   0.000  0.00  0.00    +0.004 C 
ATOM     12  C   UNL     1      -7.174   2.003   0.000  0.00  0.00    +0.014 C 
ATOM     13  C   UNL     1      -8.473   2.753   0.000  0.00  0.00    +0.075 C 
ATOM     23  C   UNL     1      -7.174   5.003   0.000  0.00  0.00    +0.055 C 
ATOM     24  C   UNL     1      -9.772   3.503   0.000  0.00  0.00    +0.022 C 
ATOM     25  C   UNL     1     -11.071   2.753   0.000  0.00  0.00    +0.010 C 
ENDROOT
BRANCH  13  14
ATOM     14  O   UNL     1      -9.437   1.604   0.000  0.00  0.00    -0.388 OA
ATOM     15  H   UNL     1     -10.392   1.773   0.000  0.00  0.00    +0.210 HD
ENDBRANCH  13  14
BRANCH  13  16
ATOM     16  C   UNL     1      -6.882   0.857   0.000  0.00  0.00    +0.040 C 
BRANCH  16  17
ATOM     17  C   UNL     1      -5.405   1.118   0.000  0.00  0.00    +0.041 C 
BRANCH  17  18
ATOM     18  C   UNL     1      -4.441  -0.031   0.000  0.00  0.00    -0.010 A 
ATOM     19  C   UNL     1      -2.944   0.073   0.000  0.00  0.00    +0.198 A 
ATOM     20  O   UNL     1      -2.382  -1.317   0.000  0.00  0.00    -0.471 OA
ATOM     21  C   UNL     1      -3.532  -2.282   0.000  0.00  0.00    +0.195 A 
ATOM     22  C   UNL     1      -4.804  -1.487   0.000  0.00  0.00    +0.044 A 
ENDBRANCH  17  18
ENDBRANCH  16  17
ENDBRANCH  13  16
TORSDOF 4