REMARK  Name = 301168
REMARK  0 active torsions:
REMARK  status: ('A' for Active; 'I' for Inactive)
REMARK                            x       y       z     vdW  Elec       q    Type
REMARK                         _______ _______ _______ _____ _____    ______ ____
ROOT
ATOM      1  C   UNL     1       7.245   5.250   0.000  0.00  0.00    +0.060 A 
ATOM      2  C   UNL     1       5.946   4.500   0.000  0.00  0.00    +0.057 A 
ATOM      3  C   UNL     1       5.946   3.000   0.000  0.00  0.00    +0.159 A 
ATOM      4  N   UNL     1       4.647   2.250   0.000  0.00  0.00    -0.296 N 
ATOM      5  H   UNL     1       4.647   0.750   0.000  0.00  0.00    +0.154 HD
ATOM      6  C   UNL     1       3.348   3.000   0.000  0.00  0.00    +0.046 A 
ATOM      7  C   UNL     1       2.049   2.250   0.000  0.00  0.00    +0.024 A 
ATOM      8  C   UNL     1       0.750   3.000   0.000  0.00  0.00    +0.002 A 
ATOM      9  C   UNL     1       0.750   4.500   0.000  0.00  0.00    +0.001 A 
ATOM     10  C   UNL     1       2.049   5.250   0.000  0.00  0.00    +0.017 A 
ATOM     11  C   UNL     1       3.348   4.500   0.000  0.00  0.00    +0.034 A 
ATOM     12  N   UNL     1       7.245   2.250   0.000  0.00  0.00    -0.132 NA
ATOM     13  N   UNL     1       8.544   3.000   0.000  0.00  0.00    -0.136 NA
ATOM     14  S   UNL     1       4.647   5.250   0.000  0.00  0.00    -0.084 S 
ATOM     15  C   UNL     1       8.544   4.500   0.000  0.00  0.00    +0.153 A 
ATOM     16 CL   UNL     1       9.843   5.250   0.000  0.00  0.00    -0.060 Cl
ENDROOT
TORSDOF 0