REMARK  Name = 342460
REMARK  3 active torsions:
REMARK  status: ('A' for Active; 'I' for Inactive)
REMARK    1  A    between atoms: N_4  and  C_9
REMARK    2  A    between atoms: N_5  and  C_13
REMARK    3  A    between atoms: C_8  and  N_10
REMARK                            x       y       z     vdW  Elec       q    Type
REMARK                         _______ _______ _______ _____ _____    ______ ____
ROOT
ATOM      1  C   UNL     1       0.750  -3.000   0.000  0.00  0.00    +0.092 A 
ATOM      2  C   UNL     1       0.750  -4.500   0.000  0.00  0.00    +0.050 A 
ATOM      3  C   UNL     1       2.049  -5.250   0.000  0.00  0.00    +0.117 A 
ATOM      4  C   UNL     1       2.049  -6.750   0.000  0.00  0.00    +0.408 C 
ATOM      8  N   UNL     1       3.348  -4.500   0.000  0.00  0.00    -0.292 N 
ATOM      9  C   UNL     1       4.647  -5.250   0.000  0.00  0.00    +0.154 C 
ATOM     10  C   UNL     1       3.348  -3.000   0.000  0.00  0.00    +0.329 A 
ATOM     11  O   UNL     1       4.647  -2.250   0.000  0.00  0.00    -0.246 OA
ATOM     12  N   UNL     1       2.049  -2.250   0.000  0.00  0.00    -0.304 N 
ATOM     13  C   UNL     1       2.049  -0.750   0.000  0.00  0.00    +0.153 C 
ENDROOT
BRANCH   4   5
ATOM      5  N   UNL     1       3.348  -7.500   0.000  0.00  0.00    +0.074 N 
ATOM      6  O   UNL     1       3.348  -9.000   0.000  0.00  0.00    +0.041 OA
ATOM      7  O   UNL     1       4.647  -6.750   0.000  0.00  0.00    -0.576 OA
ENDBRANCH   4   5
TORSDOF 1