REMARK  Name = 337726
REMARK  4 active torsions:
REMARK  status: ('A' for Active; 'I' for Inactive)
REMARK    1  A    between atoms: C_5  and  N_8
REMARK    2  A    between atoms: N_8  and  N_9
REMARK    3  A    between atoms: N_8  and  C_15
REMARK    4  A    between atoms: C_10  and  C_21
REMARK                            x       y       z     vdW  Elec       q    Type
REMARK                         _______ _______ _______ _____ _____    ______ ____
ROOT
ATOM      8  N   UNL     1       2.662   7.270   0.000  0.00  0.00    -0.220 N 
ENDROOT
BRANCH   8   7
ATOM      1  C   UNL     1       1.448   9.652   0.000  0.00  0.00    +0.048 C 
ATOM      2  C   UNL     1       1.912  11.078   0.000  0.00  0.00    +0.168 C 
ATOM      3  S   UNL     1       3.412  11.078   0.000  0.00  0.00    -0.029 S 
ATOM      4  O   UNL     1       4.879  11.390   0.000  0.00  0.00    -0.174 OA
ATOM      5  C   UNL     1       3.875   9.652   0.000  0.00  0.00    +0.190 C 
ATOM      6  O   UNL     1       3.255  12.570   0.000  0.00  0.00    -0.174 OA
ATOM      7  C   UNL     1       2.662   8.770   0.000  0.00  0.00    +0.121 C 
ENDBRANCH   8   7
BRANCH   8   9
ATOM      9  C   UNL     1       3.961   6.520   0.000  0.00  0.00    +0.052 A 
ATOM     10  C   UNL     1       3.961   5.020   0.000  0.00  0.00    +0.025 A 
ATOM     11  C   UNL     1       5.260   4.270   0.000  0.00  0.00    +0.002 A 
ATOM     12  C   UNL     1       6.559   5.020   0.000  0.00  0.00    +0.000 A 
ATOM     13  C   UNL     1       6.559   6.520   0.000  0.00  0.00    +0.002 A 
ATOM     14  C   UNL     1       5.260   7.270   0.000  0.00  0.00    +0.025 A 
ENDBRANCH   8   9
BRANCH   8  15
ATOM     15  N   UNL     1       1.697   6.121   0.000  0.00  0.00    -0.184 NA
ATOM     16  C   UNL     1       2.211   4.711   0.000  0.00  0.00    +0.176 C 
BRANCH  16  17
ATOM     17  C   UNL     1       1.246   3.562   0.000  0.00  0.00    +0.147 A 
ATOM     18  O   UNL     1       1.609   2.107   0.000  0.00  0.00    -0.462 OA
ATOM     19  C   UNL     1       0.337   1.312   0.000  0.00  0.00    +0.196 A 
ATOM     20  C   UNL     1      -0.812   2.276   0.000  0.00  0.00    +0.042 A 
ATOM     21  C   UNL     1      -0.250   3.667   0.000  0.00  0.00    +0.051 A 
ENDBRANCH  16  17
ENDBRANCH   8  15
TORSDOF 4