REMARK  Name = 22806
REMARK  6 active torsions:
REMARK  status: ('A' for Active; 'I' for Inactive)
REMARK    1  A    between atoms: N_1  and  C_13
REMARK    2  A    between atoms: C_4  and  N_16
REMARK    3  A    between atoms: C_5  and  O_17
REMARK    4  A    between atoms: C_9  and  C_14
REMARK    5  A    between atoms: O_17  and  C_18
REMARK    6  A    between atoms: C_18  and  C_19
REMARK                            x       y       z     vdW  Elec       q    Type
REMARK                         _______ _______ _______ _____ _____    ______ ____
ROOT
ATOM      7  C   UNL     1       2.873   5.524   0.000  0.00  0.00    +0.222 C 
ATOM      8  N   UNL     1       4.172   4.774   0.000  0.00  0.00    -0.285 N 
ATOM      9  H   UNL     1       4.172   3.790   0.000  0.00  0.00    +0.155 HD
ATOM     19  O   UNL     1       2.873   7.024   0.000  0.00  0.00    -0.275 OA
ENDROOT
BRANCH   7   6
ATOM      1  N   UNL     1      -1.025   4.774   0.000  0.00  0.00    -0.305 NA
ATOM      2  C   UNL     1      -2.324   5.524   0.000  0.00  0.00    +0.104 C 
ATOM      3  C   UNL     1      -1.025   3.275   0.000  0.00  0.00    +0.084 C 
ATOM      4  C   UNL     1       0.275   2.525   0.000  0.00  0.00    +0.016 C 
ATOM      5  C   UNL     1       1.574   3.275   0.000  0.00  0.00    +0.015 C 
ATOM      6  C   UNL     1       1.574   4.774   0.000  0.00  0.00    +0.089 C 
ATOM     20  C   UNL     1       0.275   5.524   0.000  0.00  0.00    +0.096 C 
ENDBRANCH   7   6
BRANCH   8  10
ATOM     10  C   UNL     1       5.471   5.524   0.000  0.00  0.00    +0.034 A 
ATOM     11  C   UNL     1       6.770   4.774   0.000  0.00  0.00    +0.027 A 
ATOM     12  C   UNL     1       8.069   5.524   0.000  0.00  0.00    +0.047 A 
ATOM     13  C   UNL     1       8.069   7.024   0.000  0.00  0.00    +0.121 A 
ATOM     17  C   UNL     1       6.770   7.774   0.000  0.00  0.00    +0.047 A 
ATOM     18  C   UNL     1       5.471   7.024   0.000  0.00  0.00    +0.027 A 
BRANCH  13  14
ATOM     14  O   UNL     1       9.368   7.774   0.000  0.00  0.00    -0.492 OA
BRANCH  14  15
ATOM     15  C   UNL     1       9.368   9.274   0.000  0.00  0.00    +0.225 C 
ATOM     16  C   UNL     1      10.667  10.025   0.000  0.00  0.00    +0.048 C 
ENDBRANCH  14  15
ENDBRANCH  13  14
ENDBRANCH   8  10
TORSDOF 4