REMARK  Name = 276736
REMARK  4 active torsions:
REMARK  status: ('A' for Active; 'I' for Inactive)
REMARK    1  A    between atoms: O_1  and  C_3
REMARK    2  A    between atoms: O_1  and  C_20
REMARK    3  A    between atoms: O_2  and  C_4
REMARK    4  A    between atoms: O_2  and  C_21
REMARK                            x       y       z     vdW  Elec       q    Type
REMARK                         _______ _______ _______ _____ _____    ______ ____
ROOT
ATOM      3  C   UNL     1       3.348   4.500   0.000  0.00  0.00    +0.162 A 
ATOM      4  C   UNL     1       3.348   3.000   0.000  0.00  0.00    +0.162 A 
ATOM      5  C   UNL     1       4.647   2.250   0.000  0.00  0.00    +0.063 A 
ATOM      6  C   UNL     1       5.946   3.000   0.000  0.00  0.00    +0.051 A 
ATOM      7  C   UNL     1       7.245   2.250   0.000  0.00  0.00    +0.260 A 
ATOM      8  O   UNL     1       7.245   0.750   0.000  0.00  0.00    -0.267 OA
ATOM      9  N   UNL     1       8.544   3.000   0.000  0.00  0.00    -0.307 N 
ATOM     10  C   UNL     1      10.154   2.890   0.000  0.00  0.00    +0.130 C 
ATOM     11  C   UNL     1      10.904   4.189   0.000  0.00  0.00    +0.059 C 
ATOM     12  C   UNL     1       9.843   5.250   0.000  0.00  0.00    -0.022 A 
ATOM     13  C   UNL     1       9.843   6.750   0.000  0.00  0.00    +0.006 A 
ATOM     14  C   UNL     1       8.544   7.500   0.000  0.00  0.00    +0.001 A 
ATOM     15  C   UNL     1       7.245   6.750   0.000  0.00  0.00    +0.010 A 
ATOM     16  C   UNL     1       7.245   5.250   0.000  0.00  0.00    +0.007 A 
ATOM     17  C   UNL     1       8.544   4.500   0.000  0.00  0.00    +0.056 A 
ATOM     18  C   UNL     1       5.946   4.500   0.000  0.00  0.00    +0.000 A 
ATOM     21  C   UNL     1       4.647   5.250   0.000  0.00  0.00    +0.058 A 
ENDROOT
BRANCH   3   1
ATOM      1  O   UNL     1       2.049   5.250   0.000  0.00  0.00    -0.491 OA
ATOM      2  C   UNL     1       0.750   4.500   0.000  0.00  0.00    +0.277 C 
ENDBRANCH   3   1
BRANCH   4  19
ATOM     19  O   UNL     1       2.049   2.250   0.000  0.00  0.00    -0.491 OA
ATOM     20  C   UNL     1       0.750   3.000   0.000  0.00  0.00    +0.277 C 
ENDBRANCH   4  19
TORSDOF 2