REMARK  Name = 321517
REMARK  12 active torsions:
REMARK  status: ('A' for Active; 'I' for Inactive)
REMARK    1  A    between atoms: N_1  and  C_2
REMARK    2  A    between atoms: N_1  and  C_12
REMARK    3  A    between atoms: N_1  and  C_14
REMARK    4  A    between atoms: C_2  and  O_4
REMARK    5  A    between atoms: O_4  and  C_5
REMARK    6  A    between atoms: N_6  and  C_16
REMARK    7  A    between atoms: C_11  and  C_20
REMARK    8  A    between atoms: C_12  and  C_13
REMARK    9  A    between atoms: C_14  and  C_15
REMARK   10  A    between atoms: C_16  and  C_17
REMARK   11  A    between atoms: C_17  and  C_18
REMARK   12  A    between atoms: C_18  and  C_19
REMARK                            x       y       z     vdW  Elec       q    Type
REMARK                         _______ _______ _______ _____ _____    ______ ____
ROOT
ATOM      8  C   UNL     1       5.946   4.500   0.000  0.00  0.00    +0.207 A 
ATOM      9  N   UNL     1       5.946   3.000   0.000  0.00  0.00    -0.290 N 
ATOM     14  C   UNL     1       7.245   2.250   0.000  0.00  0.00    +0.183 A 
ATOM     15  S   UNL     1       7.245   0.750   0.000  0.00  0.00    -0.011 S 
ATOM     16  N   UNL     1       8.544   3.000   0.000  0.00  0.00    -0.228 NA
ATOM     17  C   UNL     1       8.544   4.500   0.000  0.00  0.00    +0.046 A 
ATOM     18  C   UNL     1       9.843   5.250   0.000  0.00  0.00    +0.066 C 
ATOM     19  C   UNL     1       7.245   5.250   0.000  0.00  0.00    +0.089 A 
ENDROOT
BRANCH   8   7
ATOM      7  O   UNL     1       4.647   5.250   0.000  0.00  0.00    -0.419 OA
BRANCH   7   6
ATOM      6  C   UNL     1       4.908   6.727   0.000  0.00  0.00    +0.238 C 
ATOM     20  S   UNL     1       6.317   7.240   0.000  0.00  0.00    +0.006 S 
BRANCH   6   1
ATOM      1  N   UNL     1       3.759   7.691   0.000  0.00  0.00    -0.296 N 
BRANCH   1   2
ATOM      2  C   UNL     1       2.349   7.178   0.000  0.00  0.00    +0.105 C 
ATOM      3  C   UNL     1       1.200   8.143   0.000  0.00  0.00    +0.024 C 
ENDBRANCH   1   2
BRANCH   1   4
ATOM      4  C   UNL     1       4.019   9.169   0.000  0.00  0.00    +0.105 C 
ATOM      5  C   UNL     1       2.870  10.133   0.000  0.00  0.00    +0.024 C 
ENDBRANCH   1   4
ENDBRANCH   6   1
ENDBRANCH   7   6
ENDBRANCH   8   7
BRANCH   9  10
ATOM     10  C   UNL     1       4.647   2.250   0.000  0.00  0.00    +0.127 C 
BRANCH  10  11
ATOM     11  C   UNL     1       3.348   3.000   0.000  0.00  0.00    +0.021 C 
BRANCH  11  12
ATOM     12  C   UNL     1       2.049   2.250   0.000  0.00  0.00    -0.002 C 
ATOM     13  C   UNL     1       0.750   3.000   0.000  0.00  0.00    +0.004 C 
ENDBRANCH  11  12
ENDBRANCH  10  11
ENDBRANCH   9  10
TORSDOF 8