REMARK  Name = 326375
REMARK  5 active torsions:
REMARK  status: ('A' for Active; 'I' for Inactive)
REMARK    1  A    between atoms: C_1  and  C_14
REMARK    2  A    between atoms: C_2  and  C_20
REMARK    3  A    between atoms: C_6  and  C_7
REMARK    4  A    between atoms: C_12  and  O_13
REMARK    5  A    between atoms: O_13  and  C_26
REMARK                            x       y       z     vdW  Elec       q    Type
REMARK                         _______ _______ _______ _____ _____    ______ ____
ROOT
ATOM      1  C   UNL     1       5.250   5.946   0.000  0.00  0.00    +0.101 A 
ATOM      8  C   UNL     1       6.000   4.647   0.000  0.00  0.00    +0.012 A 
ATOM     15  C   UNL     1       7.500   4.647   0.000  0.00  0.00    +0.040 A 
ATOM     16  C   UNL     1       8.250   5.946   0.000  0.00  0.00    +0.094 A 
ATOM     25  N   UNL     1       7.500   7.245   0.000  0.00  0.00    -0.149 NA
ATOM     26  N   UNL     1       6.000   7.245   0.000  0.00  0.00    -0.148 NA
ENDROOT
BRANCH   1   2
ATOM      2  C   UNL     1       3.750   5.946   0.000  0.00  0.00    +0.003 A 
ATOM      3  C   UNL     1       3.000   7.245   0.000  0.00  0.00    +0.010 A 
ATOM      4  C   UNL     1       1.500   7.245   0.000  0.00  0.00    +0.001 A 
ATOM      5  C   UNL     1       0.750   5.946   0.000  0.00  0.00    +0.000 A 
ATOM      6  C   UNL     1       1.500   4.647   0.000  0.00  0.00    +0.001 A 
ATOM      7  C   UNL     1       3.000   4.647   0.000  0.00  0.00    +0.010 A 
ENDBRANCH   1   2
BRANCH   8   9
ATOM      9  C   UNL     1       5.250   3.348   0.000  0.00  0.00    -0.016 A 
ATOM     10  C   UNL     1       3.750   3.348   0.000  0.00  0.00    +0.008 A 
ATOM     11  C   UNL     1       3.000   2.049   0.000  0.00  0.00    +0.001 A 
ATOM     12  C   UNL     1       3.750   0.750   0.000  0.00  0.00    +0.000 A 
ATOM     13  C   UNL     1       5.250   0.750   0.000  0.00  0.00    +0.001 A 
ATOM     14  C   UNL     1       6.000   2.049   0.000  0.00  0.00    +0.008 A 
ENDBRANCH   8   9
BRANCH  16  17
ATOM     17  C   UNL     1       9.750   5.946   0.000  0.00  0.00    +0.002 A 
ATOM     18  C   UNL     1      10.500   4.647   0.000  0.00  0.00    +0.013 A 
ATOM     19  C   UNL     1      12.000   4.647   0.000  0.00  0.00    +0.046 A 
ATOM     20  C   UNL     1      12.750   5.946   0.000  0.00  0.00    +0.120 A 
ATOM     23  C   UNL     1      12.000   7.245   0.000  0.00  0.00    +0.046 A 
ATOM     24  C   UNL     1      10.500   7.245   0.000  0.00  0.00    +0.013 A 
BRANCH  20  21
ATOM     21  O   UNL     1      14.250   5.946   0.000  0.00  0.00    -0.495 OA
ATOM     22  C   UNL     1      15.000   7.245   0.000  0.00  0.00    +0.277 C 
ENDBRANCH  20  21
ENDBRANCH  16  17
TORSDOF 4