REMARK  Name = 30663
REMARK  8 active torsions:
REMARK  status: ('A' for Active; 'I' for Inactive)
REMARK    1  A    between atoms: N_2  and  C_23
REMARK    2  A    between atoms: N_3  and  C_21
REMARK    3  A    between atoms: C_5  and  C_28
REMARK    4  A    between atoms: C_7  and  C_29
REMARK    5  A    between atoms: C_7  and  C_30
REMARK    6  A    between atoms: C_12  and  C_27
REMARK    7  A    between atoms: C_15  and  C_25
REMARK    8  A    between atoms: C_15  and  C_26
REMARK                            x       y       z     vdW  Elec       q    Type
REMARK                         _______ _______ _______ _____ _____    ______ ____
ROOT
ATOM     11  C   UNL     1       3.522   4.399   0.000  0.00  0.00    +0.064 A 
ATOM     12  C   UNL     1       4.821   3.650   0.000  0.00  0.00    +0.030 A 
ATOM     13  C   UNL     1       6.120   4.399   0.000  0.00  0.00    +0.030 A 
ATOM     14  C   UNL     1       6.120   5.899   0.000  0.00  0.00    +0.064 A 
ATOM     15  C   UNL     1       4.821   6.649   0.000  0.00  0.00    +0.030 A 
ATOM     28  C   UNL     1       3.522   5.899   0.000  0.00  0.00    +0.030 A 
ENDROOT
BRANCH  11  10
ATOM      1  O   UNL     1       2.223   6.649   0.000  0.00  0.00    -0.290 OA
ATOM      2  C   UNL     1       0.924   5.899   0.000  0.00  0.00    +0.184 C 
ATOM      3  C   UNL     1       0.924   4.399   0.000  0.00  0.00    +0.088 C 
ATOM      4  C   UNL     1      -0.375   3.650   0.000  0.00  0.00    +0.048 C 
ATOM      5  C   UNL     1      -1.674   4.399   0.000  0.00  0.00    +0.011 C 
ATOM      6  C   UNL     1      -1.674   5.899   0.000  0.00  0.00    +0.016 C 
ATOM      7  C   UNL     1       0.491   5.149   0.000  0.00  0.00    -0.014 C 
ATOM      8  C   UNL     1      -0.918   5.662   0.000  0.00  0.00    +0.012 C 
ATOM      9  C   UNL     1      -0.918   4.636   0.000  0.00  0.00    +0.012 C 
ATOM     10  N   UNL     1       2.223   3.650   0.000  0.00  0.00    -0.248 NA
ATOM     29  C   UNL     1      -0.375   6.649   0.000  0.00  0.00    +0.038 C 
ATOM     30  C   UNL     1      -0.375   8.149   0.000  0.00  0.00    +0.020 C 
ENDBRANCH  11  10
BRANCH  14  16
ATOM     16  N   UNL     1       7.419   6.649   0.000  0.00  0.00    -0.248 NA
ATOM     17  C   UNL     1       7.419   8.149   0.000  0.00  0.00    +0.088 C 
ATOM     18  C   UNL     1       8.718   8.899   0.000  0.00  0.00    +0.048 C 
ATOM     19  C   UNL     1       8.718  10.400   0.000  0.00  0.00    +0.011 C 
ATOM     20  C   UNL     1       7.419  11.150   0.000  0.00  0.00    +0.016 C 
ATOM     21  C   UNL     1       6.120  10.400   0.000  0.00  0.00    +0.038 C 
ATOM     22  C   UNL     1       4.821  11.150   0.000  0.00  0.00    +0.020 C 
ATOM     23  C   UNL     1       6.986   8.899   0.000  0.00  0.00    -0.014 C 
ATOM     24  C   UNL     1       8.135   9.864   0.000  0.00  0.00    +0.012 C 
ATOM     25  C   UNL     1       7.247  10.377   0.000  0.00  0.00    +0.012 C 
ATOM     26  C   UNL     1       6.120   8.899   0.000  0.00  0.00    +0.184 C 
ATOM     27  O   UNL     1       4.821   8.149   0.000  0.00  0.00    -0.290 OA
ENDBRANCH  14  16
TORSDOF 2