REMARK  Name = 376254
REMARK  10 active torsions:
REMARK  status: ('A' for Active; 'I' for Inactive)
REMARK    1  A    between atoms: N_6  and  C_27
REMARK    2  A    between atoms: O_8  and  C_11
REMARK    3  A    between atoms: O_8  and  S_30
REMARK    4  A    between atoms: C_14  and  O_28
REMARK    5  A    between atoms: C_16  and  O_23
REMARK    6  A    between atoms: C_19  and  O_25
REMARK    7  A    between atoms: O_23  and  C_24
REMARK    8  A    between atoms: O_25  and  C_26
REMARK    9  A    between atoms: O_28  and  C_29
REMARK   10  A    between atoms: S_30  and  C_33
REMARK                            x       y       z     vdW  Elec       q    Type
REMARK                         _______ _______ _______ _____ _____    ______ ____
ROOT
ATOM      1  C   UNL     1      -6.516  -7.688   0.000  0.00  0.00    +0.116 C 
ATOM      2  C   UNL     1      -5.213  -8.431   0.000  0.00  0.00    +0.122 C 
ATOM      3  N   UNL     1      -5.205  -9.931   0.000  0.00  0.00    -0.292 N 
ATOM      4  C   UNL     1      -3.901 -10.674   0.000  0.00  0.00    +0.133 C 
ATOM      5  C   UNL     1      -6.499 -10.688   0.000  0.00  0.00    +0.247 C 
ATOM      6  C   UNL     1      -7.803  -9.945   0.000  0.00  0.00    +0.045 A 
ATOM      7  C   UNL     1      -9.097 -10.702   0.000  0.00  0.00    +0.062 A 
ATOM      8  C   UNL     1     -10.400  -9.959   0.000  0.00  0.00    +0.162 A 
ATOM     11  C   UNL     1     -10.409  -8.459   0.000  0.00  0.00    +0.162 A 
ATOM     14  C   UNL     1      -9.114  -7.702   0.000  0.00  0.00    +0.054 A 
ATOM     15  O   UNL     1      -6.491 -12.188   0.000  0.00  0.00    -0.270 OA
ATOM     16  C   UNL     1      -4.103  -7.421   0.000  0.00  0.00    -0.012 A 
ATOM     17  C   UNL     1      -2.611  -7.570   0.000  0.00  0.00    +0.055 A 
ATOM     18  C   UNL     1      -1.736  -6.351   0.000  0.00  0.00    +0.165 A 
ATOM     21  C   UNL     1      -2.353  -4.984   0.000  0.00  0.00    +0.198 A 
ATOM     22  C   UNL     1      -3.846  -4.836   0.000  0.00  0.00    +0.064 A 
ATOM     28  C   UNL     1      -4.721  -6.054   0.000  0.00  0.00    +0.027 A 
ATOM     29  C   UNL     1      -7.811  -8.445   0.000  0.00  0.00    -0.019 A 
ATOM     30  C   UNL     1      -6.212  -6.219   0.000  0.00  0.00    +0.173 C 
ATOM     31  O   UNL     1      -7.222  -5.110   0.000  0.00  0.00    -0.291 OA
ENDROOT
BRANCH   8   9
ATOM      9  O   UNL     1     -11.695 -10.716   0.000  0.00  0.00    -0.491 OA
ATOM     10  C   UNL     1     -12.999  -9.973   0.000  0.00  0.00    +0.277 C 
ENDBRANCH   8   9
BRANCH  11  12
ATOM     12  O   UNL     1     -11.712  -7.716   0.000  0.00  0.00    -0.491 OA
ATOM     13  C   UNL     1     -13.007  -8.473   0.000  0.00  0.00    +0.277 C 
ENDBRANCH  11  12
BRANCH  18  19
ATOM     19  O   UNL     1      -0.243  -6.500   0.000  0.00  0.00    -0.491 OA
ATOM     20  C   UNL     1       0.632  -5.282   0.000  0.00  0.00    +0.277 C 
ENDBRANCH  18  19
BRANCH  21  23
ATOM     23  O   UNL     1      -1.478  -3.766   0.000  0.00  0.00    -0.343 OA
BRANCH  23  24
ATOM     24  S   UNL     1      -2.096  -2.399   0.000  0.00  0.00    +0.118 S 
ATOM     25  C   UNL     1      -2.713  -1.032   0.000  0.00  0.00    +0.242 C 
ATOM     26  O   UNL     1      -0.729  -1.782   0.000  0.00  0.00    -0.137 OA
ATOM     27  O   UNL     1      -3.463  -3.017   0.000  0.00  0.00    -0.137 OA
ENDBRANCH  23  24
ENDBRANCH  21  23
TORSDOF 5