REMARK  Name = 372499
REMARK  5 active torsions:
REMARK  status: ('A' for Active; 'I' for Inactive)
REMARK    1  A    between atoms: C_4  and  O_21
REMARK    2  A    between atoms: C_5  and  C_7
REMARK    3  A    between atoms: C_9  and  O_22
REMARK    4  A    between atoms: C_19  and  C_23
REMARK    5  A    between atoms: C_20  and  C_24
REMARK                            x       y       z     vdW  Elec       q    Type
REMARK                         _______ _______ _______ _____ _____    ______ ____
ROOT
ATOM      8  C   UNL     1       2.873   5.524   0.000  0.00  0.00    +0.272 C 
ATOM      9  O   UNL     1       4.243   4.914   0.000  0.00  0.00    -0.459 OA
ATOM     10  C   UNL     1       5.247   6.029   0.000  0.00  0.00    +0.244 A 
ATOM     11  N   UNL     1       6.747   6.029   0.000  0.00  0.00    -0.210 NA
ATOM     12  C   UNL     1       7.497   7.328   0.000  0.00  0.00    +0.091 A 
ATOM     13  C   UNL     1       8.997   7.328   0.000  0.00  0.00    +0.033 A 
ATOM     14  C   UNL     1       9.747   8.627   0.000  0.00  0.00    -0.045 A 
ATOM     15  C   UNL     1      11.247   8.627   0.000  0.00  0.00    +0.044 C 
ATOM     16  C   UNL     1       8.997   9.926   0.000  0.00  0.00    -0.045 A 
ATOM     17  C   UNL     1       9.747  11.225   0.000  0.00  0.00    +0.044 C 
ATOM     18  C   UNL     1       7.497   9.926   0.000  0.00  0.00    +0.031 A 
ATOM     19  C   UNL     1       6.747   8.627   0.000  0.00  0.00    +0.066 A 
ATOM     20  N   UNL     1       5.247   8.627   0.000  0.00  0.00    -0.347 N 
ATOM     21  H   UNL     1       4.497   9.926   0.000  0.00  0.00    +0.166 HD
ATOM     22  C   UNL     1       4.497   7.328   0.000  0.00  0.00    +0.144 A 
ATOM     23  C   UNL     1       3.029   7.016   0.000  0.00  0.00    +0.168 C 
ENDROOT
BRANCH   8   7
ATOM      1  C   UNL     1      -1.025   4.774   0.000  0.00  0.00    +0.004 A 
ATOM      2  C   UNL     1      -1.025   3.275   0.000  0.00  0.00    +0.045 A 
ATOM      3  C   UNL     1       0.275   2.525   0.000  0.00  0.00    +0.117 A 
ATOM      6  C   UNL     1       1.574   3.275   0.000  0.00  0.00    +0.053 A 
ATOM      7  C   UNL     1       1.574   4.774   0.000  0.00  0.00    +0.004 A 
ATOM     26  C   UNL     1       0.275   5.524   0.000  0.00  0.00    +0.008 A 
BRANCH   3   4
ATOM      4  O   UNL     1       0.275   1.025   0.000  0.00  0.00    -0.507 OA
ATOM      5  H   UNL     1      -0.537   0.556   0.000  0.00  0.00    +0.292 HD
ENDBRANCH   3   4
ENDBRANCH   8   7
BRANCH  23  24
ATOM     24  O   UNL     1       1.915   8.020   0.000  0.00  0.00    -0.505 OA
ATOM     25  H   UNL     1       2.110   8.937   0.000  0.00  0.00    +0.292 HD
ENDBRANCH  23  24
TORSDOF 3