REMARK  Name = 331972
REMARK  3 active torsions:
REMARK  status: ('A' for Active; 'I' for Inactive)
REMARK    1  A    between atoms: C_1  and  C_15
REMARK    2  A    between atoms: C_2  and  N_16
REMARK    3  A    between atoms: C_6  and  N_19
REMARK                            x       y       z     vdW  Elec       q    Type
REMARK                         _______ _______ _______ _____ _____    ______ ____
ROOT
ATOM      1  C   UNL     1       0.275   6.221   0.000  0.00  0.00    +0.027 A 
ATOM      2  C   UNL     1      -1.226   6.221   0.000  0.00  0.00    +0.051 C 
ATOM      3  C   UNL     1       1.025   4.922   0.000  0.00  0.00    +0.278 A 
ATOM      7  C   UNL     1       2.525   4.922   0.000  0.00  0.00    +0.107 A 
ATOM      8  C   UNL     1       3.275   6.221   0.000  0.00  0.00    +0.041 A 
ATOM     19  C   UNL     1       2.525   7.520   0.000  0.00  0.00    +0.024 A 
ATOM     20  C   UNL     1       1.025   7.520   0.000  0.00  0.00    +0.012 A 
ENDROOT
BRANCH   8   9
ATOM      9  N   UNL     1       4.774   6.221   0.000  0.00  0.00    -0.269 N 
ATOM     10  H   UNL     1       5.267   5.368   0.000  0.00  0.00    +0.156 HD
ATOM     11  C   UNL     1       5.524   7.520   0.000  0.00  0.00    +0.306 C 
ATOM     12  N   UNL     1       7.024   7.520   0.000  0.00  0.00    -0.285 N 
ATOM     13  C   UNL     1       7.774   6.221   0.000  0.00  0.00    +0.109 C 
ATOM     14  C   UNL     1       9.274   6.221   0.000  0.00  0.00    +0.019 C 
ATOM     15  C   UNL     1      10.025   7.520   0.000  0.00  0.00    +0.003 C 
ATOM     16  C   UNL     1       9.274   8.819   0.000  0.00  0.00    +0.019 C 
ATOM     17  C   UNL     1       7.774   8.819   0.000  0.00  0.00    +0.109 C 
ATOM     18  O   UNL     1       4.774   8.819   0.000  0.00  0.00    -0.252 OA
ENDBRANCH   8   9
BRANCH   3   4
ATOM      4  N   UNL     1       0.275   3.623   0.000  0.00  0.00    +0.080 N 
ATOM      5  O   UNL     1       1.025   2.324   0.000  0.00  0.00    +0.041 OA
ATOM      6  O   UNL     1      -1.226   3.623   0.000  0.00  0.00    -0.576 OA
ENDBRANCH   3   4
TORSDOF 2