REMARK  Name = 283856
REMARK  6 active torsions:
REMARK  status: ('A' for Active; 'I' for Inactive)
REMARK    1  A    between atoms: C_1  and  C_16
REMARK    2  A    between atoms: C_1  and  C_17
REMARK    3  A    between atoms: C_4  and  N_18
REMARK    4  A    between atoms: C_7  and  N_18
REMARK    5  A    between atoms: C_14  and  O_15
REMARK    6  A    between atoms: O_15  and  C_19
REMARK                            x       y       z     vdW  Elec       q    Type
REMARK                         _______ _______ _______ _____ _____    ______ ____
ROOT
ATOM      1  C   UNL     1       3.009   0.757   0.000  0.00  0.00    +0.032 C 
ATOM      2  C   UNL     1       1.859  -0.208   0.000  0.00  0.00    +0.031 C 
ATOM      3  C   UNL     1       1.859   1.721   0.000  0.00  0.00    +0.031 C 
ATOM      4  C   UNL     1       3.759  -0.542   0.000  0.00  0.00    +0.076 C 
ATOM      5  C   UNL     1       5.259  -0.542   0.000  0.00  0.00    +0.012 C 
ATOM     16  C   UNL     1       6.009   0.757   0.000  0.00  0.00    +0.049 C 
ATOM     17  C   UNL     1       5.259   2.056   0.000  0.00  0.00    +0.074 C 
ATOM     18  S   UNL     1       6.009   3.355   0.000  0.00  0.00    -0.036 S 
ATOM     19  N   UNL     1       3.759   2.056   0.000  0.00  0.00    -0.333 N 
ATOM     20  H   UNL     1       3.009   3.355   0.000  0.00  0.00    +0.147 HD
ENDROOT
BRANCH   5   6
ATOM      6  N   UNL     1       6.009  -1.841   0.000  0.00  0.00    -0.318 N 
ATOM      7  H   UNL     1       5.516  -2.694   0.000  0.00  0.00    +0.152 HD
BRANCH   6   8
ATOM      8  C   UNL     1       7.509  -1.841   0.000  0.00  0.00    +0.031 A 
ATOM      9  C   UNL     1       8.259  -3.140   0.000  0.00  0.00    +0.027 A 
ATOM     10  C   UNL     1       9.759  -3.140   0.000  0.00  0.00    +0.047 A 
ATOM     11  C   UNL     1      10.509  -1.841   0.000  0.00  0.00    +0.120 A 
ATOM     14  C   UNL     1       9.759  -0.542   0.000  0.00  0.00    +0.047 A 
ATOM     15  C   UNL     1       8.259  -0.542   0.000  0.00  0.00    +0.027 A 
BRANCH  11  12
ATOM     12  O   UNL     1      12.009  -1.841   0.000  0.00  0.00    -0.495 OA
ATOM     13  C   UNL     1      12.759  -0.542   0.000  0.00  0.00    +0.277 C 
ENDBRANCH  11  12
ENDBRANCH   6   8
ENDBRANCH   5   6
TORSDOF 3