REMARK  Name = 338205
REMARK  3 active torsions:
REMARK  status: ('A' for Active; 'I' for Inactive)
REMARK    1  A    between atoms: C_6  and  O_11
REMARK    2  A    between atoms: C_7  and  C_8
REMARK    3  A    between atoms: C_8  and  O_10
REMARK                            x       y       z     vdW  Elec       q    Type
REMARK                         _______ _______ _______ _____ _____    ______ ____
ROOT
ATOM      1 CL   UNL     1       0.750   3.750   0.000  0.00  0.00    -0.060 Cl
ATOM      2  C   UNL     1       2.049   3.000   0.000  0.00  0.00    +0.153 A 
ATOM      3  N   UNL     1       2.049   1.500   0.000  0.00  0.00    -0.134 NA
ATOM      4  N   UNL     1       3.348   0.750   0.000  0.00  0.00    -0.109 NA
ATOM      5  C   UNL     1       4.647   1.500   0.000  0.00  0.00    +0.246 A 
ATOM      8  C   UNL     1       4.647   3.000   0.000  0.00  0.00    +0.124 A 
ATOM     13  C   UNL     1       3.348   3.750   0.000  0.00  0.00    +0.062 A 
ENDROOT
BRANCH   5   6
ATOM      6  O   UNL     1       5.946   0.750   0.000  0.00  0.00    -0.491 OA
ATOM      7  H   UNL     1       5.946  -0.187   0.000  0.00  0.00    +0.294 HD
ENDBRANCH   5   6
BRANCH   8   9
ATOM      9  C   UNL     1       5.946   3.750   0.000  0.00  0.00    +0.342 C 
ATOM     12  O   UNL     1       5.946   5.250   0.000  0.00  0.00    -0.245 OA
BRANCH   9  10
ATOM     10  O   UNL     1       7.245   3.000   0.000  0.00  0.00    -0.477 OA
ATOM     11  H   UNL     1       7.245   2.063   0.000  0.00  0.00    +0.295 HD
ENDBRANCH   9  10
ENDBRANCH   8   9
TORSDOF 3