REMARK  Name = 38968
REMARK  3 active torsions:
REMARK  status: ('A' for Active; 'I' for Inactive)
REMARK    1  A    between atoms: N_3  and  C_8
REMARK    2  A    between atoms: C_8  and  C_9
REMARK    3  A    between atoms: C_9  and  N_10
REMARK                            x       y       z     vdW  Elec       q    Type
REMARK                         _______ _______ _______ _____ _____    ______ ____
ROOT
ATOM      1  H   UNL     1      -0.375   2.150   0.000  0.00  0.00    +0.122 HD
ATOM      2  N   UNL     1       0.924   2.900   0.000  0.00  0.00    -0.314 NA
ATOM      3  C   UNL     1       2.223   2.150   0.000  0.00  0.00    +0.096 C 
ATOM      4  C   UNL     1       3.522   2.900   0.000  0.00  0.00    +0.099 C 
ATOM      5  N   UNL     1       3.522   4.399   0.000  0.00  0.00    -0.299 NA
ATOM     11  C   UNL     1       2.223   5.149   0.000  0.00  0.00    +0.099 C 
ATOM     12  C   UNL     1       0.924   4.399   0.000  0.00  0.00    +0.096 C 
ENDROOT
BRANCH   5   6
ATOM      6  C   UNL     1       4.821   5.149   0.000  0.00  0.00    +0.099 C 
BRANCH   6   7
ATOM      7  C   UNL     1       6.120   4.399   0.000  0.00  0.00    +0.093 C 
BRANCH   7   8
ATOM      8  N   UNL     1       7.419   5.149   0.000  0.00  0.00    -0.329 NA
ATOM      9  H   UNL     1       7.419   6.169   0.000  0.00  0.00    +0.118 HD
ATOM     10  H   UNL     1       8.303   4.640   0.000  0.00  0.00    +0.118 HD
ENDBRANCH   7   8
ENDBRANCH   6   7
ENDBRANCH   5   6
TORSDOF 3