REMARK  Name = 366802
REMARK  7 active torsions:
REMARK  status: ('A' for Active; 'I' for Inactive)
REMARK    1  A    between atoms: C_3  and  C_5
REMARK    2  A    between atoms: N_6  and  C_11
REMARK    3  A    between atoms: C_7  and  N_15
REMARK    4  A    between atoms: C_11  and  C_12
REMARK    5  A    between atoms: C_11  and  C_13
REMARK    6  A    between atoms: C_11  and  C_14
REMARK    7  A    between atoms: N_16  and  C_17
REMARK                            x       y       z     vdW  Elec       q    Type
REMARK                         _______ _______ _______ _____ _____    ______ ____
ROOT
ATOM      4  C   UNL     1       4.327  -1.491   0.000  0.00  0.00    +0.068 A 
ATOM      5  C   UNL     1       4.639  -2.959   0.000  0.00  0.00    +0.068 A 
ATOM      6  C   UNL     1       6.131  -3.115   0.000  0.00  0.00    +0.125 A 
ATOM     19  N   UNL     1       6.741  -1.745   0.000  0.00  0.00    -0.245 N 
ATOM     24  N   UNL     1       5.627  -0.741   0.000  0.00  0.00    -0.174 NA
ENDROOT
BRANCH   6   7
ATOM      7  N   UNL     1       6.881  -4.414   0.000  0.00  0.00    -0.254 N 
ATOM      8  H   UNL     1       7.866  -4.414   0.000  0.00  0.00    +0.158 HD
ATOM      9  C   UNL     1       6.131  -5.713   0.000  0.00  0.00    +0.309 C 
ATOM     10  N   UNL     1       6.881  -7.013   0.000  0.00  0.00    -0.269 N 
ATOM     11  H   UNL     1       6.389  -7.865   0.000  0.00  0.00    +0.156 HD
ATOM     18  O   UNL     1       4.631  -5.713   0.000  0.00  0.00    -0.252 OA
BRANCH  10  12
ATOM     12  C   UNL     1       8.381  -7.013   0.000  0.00  0.00    +0.035 A 
ATOM     13  C   UNL     1       9.131  -8.312   0.000  0.00  0.00    +0.023 A 
ATOM     14  C   UNL     1      10.631  -8.312   0.000  0.00  0.00    +0.002 A 
ATOM     15  C   UNL     1      11.381  -7.013   0.000  0.00  0.00    +0.000 A 
ATOM     16  C   UNL     1      10.631  -5.713   0.000  0.00  0.00    +0.002 A 
ATOM     17  C   UNL     1       9.131  -5.713   0.000  0.00  0.00    +0.023 A 
ENDBRANCH  10  12
ENDBRANCH   6   7
BRANCH  19  20
ATOM     20  C   UNL     1       8.208  -1.433   0.000  0.00  0.00    +0.057 C 
ATOM     21  C   UNL     1       9.676  -1.121   0.000  0.00  0.00    +0.036 C 
ATOM     22  C   UNL     1       8.520  -2.900   0.000  0.00  0.00    +0.036 C 
ATOM     23  C   UNL     1       7.897   0.034   0.000  0.00  0.00    +0.036 C 
ENDBRANCH  19  20
BRANCH   4   3
ATOM      1  C   UNL     1       2.075   0.332   0.000  0.00  0.00    +0.010 C 
ATOM      2  C   UNL     1       1.465  -1.038   0.000  0.00  0.00    +0.010 C 
ATOM      3  C   UNL     1       2.957  -0.881   0.000  0.00  0.00    +0.040 C 
ENDBRANCH   4   3
TORSDOF 4