REMARK  Name = 295486
REMARK  2 active torsions:
REMARK  status: ('A' for Active; 'I' for Inactive)
REMARK    1  A    between atoms: N_8  and  C_25
REMARK    2  A    between atoms: C_25  and  C_26
REMARK                            x       y       z     vdW  Elec       q    Type
REMARK                         _______ _______ _______ _____ _____    ______ ____
ROOT
ATOM      1  C   UNL     1       0.750   5.250   0.000  0.00  0.00    +0.002 A 
ATOM      2  C   UNL     1       0.750   3.750   0.000  0.00  0.00    +0.002 A 
ATOM      3  C   UNL     1       2.049   3.000   0.000  0.00  0.00    +0.028 A 
ATOM      4  C   UNL     1       3.348   3.750   0.000  0.00  0.00    +0.068 A 
ATOM      5  N   UNL     1       4.647   3.000   0.000  0.00  0.00    -0.338 N 
ATOM      8  C   UNL     1       5.946   3.750   0.000  0.00  0.00    +0.069 A 
ATOM      9  C   UNL     1       7.245   3.000   0.000  0.00  0.00    +0.038 A 
ATOM     10  C   UNL     1       8.544   3.750   0.000  0.00  0.00    +0.007 A 
ATOM     11  C   UNL     1       9.843   3.000   0.000  0.00  0.00    +0.096 A 
ATOM     12 CL   UNL     1       9.843   1.500   0.000  0.00  0.00    -0.079 Cl
ATOM     13  C   UNL     1      11.142   3.750   0.000  0.00  0.00    +0.205 A 
ATOM     14  O   UNL     1      12.441   3.000   0.000  0.00  0.00    -0.286 OA
ATOM     15  C   UNL     1      11.142   5.250   0.000  0.00  0.00    +0.031 A 
ATOM     16  C   UNL     1      12.441   6.000   0.000  0.00  0.00    +0.012 A 
ATOM     17  C   UNL     1      12.441   7.500   0.000  0.00  0.00    +0.001 A 
ATOM     18  C   UNL     1      11.142   8.250   0.000  0.00  0.00    +0.001 A 
ATOM     19  C   UNL     1       9.843   7.500   0.000  0.00  0.00    +0.009 A 
ATOM     20  C   UNL     1       9.843   6.000   0.000  0.00  0.00    -0.006 A 
ATOM     21  C   UNL     1       8.544   5.250   0.000  0.00  0.00    -0.006 A 
ATOM     22  C   UNL     1       7.245   6.000   0.000  0.00  0.00    +0.039 A 
ATOM     23  C   UNL     1       5.946   5.250   0.000  0.00  0.00    +0.089 A 
ATOM     24  N   UNL     1       4.647   6.000   0.000  0.00  0.00    -0.244 NA
ATOM     25  C   UNL     1       3.348   5.250   0.000  0.00  0.00    +0.088 A 
ATOM     26  C   UNL     1       2.049   6.000   0.000  0.00  0.00    +0.030 A 
ENDROOT
BRANCH   5   6
ATOM      6  C   UNL     1       4.647   1.500   0.000  0.00  0.00    +0.119 C 
ATOM      7  C   UNL     1       3.348   0.750   0.000  0.00  0.00    +0.027 C 
ENDBRANCH   5   6
TORSDOF 1