REMARK  Name = 30930
REMARK  5 active torsions:
REMARK  status: ('A' for Active; 'I' for Inactive)
REMARK    1  A    between atoms: C_7  and  O_18
REMARK    2  A    between atoms: CA_10  and  C_19
REMARK    3  A    between atoms: C_12  and  C_17
REMARK    4  A    between atoms: C_17  and  O_18
REMARK    5  A    between atoms: C_19  and  OXT_21
REMARK                            x       y       z     vdW  Elec       q    Type
REMARK                         _______ _______ _______ _____ _____    ______ ____
ROOT
ATOM      1  N   UNL     1      -1.855  -3.797   0.000  0.00  0.00    -0.349 N 
ATOM      2  H   UNL     1      -1.391  -2.370   0.000  0.00  0.00    +0.166 HD
ATOM      3  CA  UNL     1      -0.973  -5.011   0.000  0.00  0.00    +0.125 A 
ATOM      8  C   UNL     1      -1.855  -6.224   0.000  0.00  0.00    +0.043 A 
ATOM      9  C   UNL     1      -3.281  -5.761   0.000  0.00  0.00    +0.004 A 
ATOM     10  C   UNL     1      -4.580  -6.511   0.000  0.00  0.00    +0.055 A 
ATOM     11  C   UNL     1      -5.880  -5.761   0.000  0.00  0.00    +0.122 A 
ATOM     20  C   UNL     1      -5.880  -4.261   0.000  0.00  0.00    +0.048 A 
ATOM     21  C   UNL     1      -4.580  -3.511   0.000  0.00  0.00    +0.030 A 
ATOM     22  C   UNL     1      -3.281  -4.261   0.000  0.00  0.00    +0.047 A 
ENDROOT
BRANCH   3   4
ATOM      4  C   UNL     1       0.527  -5.011   0.000  0.00  0.00    +0.353 C 
ATOM      7  O   UNL     1       1.277  -6.310   0.000  0.00  0.00    -0.243 OA
BRANCH   4   5
ATOM      5  OXT UNL     1       1.277  -3.712   0.000  0.00  0.00    -0.476 OA
ATOM      6  HXT UNL     1       2.214  -3.711   0.000  0.00  0.00    +0.295 HD
ENDBRANCH   4   5
ENDBRANCH   3   4
BRANCH  11  12
ATOM     12  O   UNL     1      -7.178  -6.511   0.000  0.00  0.00    -0.487 OA
BRANCH  12  13
ATOM     13  C   UNL     1      -7.178  -8.011   0.000  0.00  0.00    +0.264 C 
BRANCH  13  14
ATOM     14  C   UNL     1      -8.478  -8.761   0.000  0.00  0.00    -0.010 A 
ATOM     15  C   UNL     1      -8.478 -10.261   0.000  0.00  0.00    +0.007 A 
ATOM     16  C   UNL     1      -9.777 -11.011   0.000  0.00  0.00    +0.000 A 
ATOM     17  C   UNL     1     -11.076 -10.261   0.000  0.00  0.00    +0.000 A 
ATOM     18  C   UNL     1     -11.076  -8.761   0.000  0.00  0.00    +0.000 A 
ATOM     19  C   UNL     1      -9.777  -8.011   0.000  0.00  0.00    +0.007 A 
ENDBRANCH  13  14
ENDBRANCH  12  13
ENDBRANCH  11  12
TORSDOF 5