REMARK  Name = 319435
REMARK  8 active torsions:
REMARK  status: ('A' for Active; 'I' for Inactive)
REMARK    1  A    between atoms: C_2  and  C_22
REMARK    2  A    between atoms: C_4  and  N_24
REMARK    3  A    between atoms: C_8  and  C_10
REMARK    4  A    between atoms: C_9  and  N_24
REMARK    5  A    between atoms: C_16  and  O_21
REMARK    6  A    between atoms: C_17  and  C_27
REMARK    7  A    between atoms: C_20  and  O_25
REMARK    8  A    between atoms: O_21  and  C_26
REMARK                            x       y       z     vdW  Elec       q    Type
REMARK                         _______ _______ _______ _____ _____    ______ ____
ROOT
ATOM      1  O   UNL     1       0.750  -5.946   0.000  0.00  0.00    -0.269 OA
ATOM      2  C   UNL     1       2.250  -5.946   0.000  0.00  0.00    +0.258 C 
ATOM      3  N   UNL     1       3.000  -7.245   0.000  0.00  0.00    -0.295 N 
ATOM      4  H   UNL     1       2.250  -8.544   0.000  0.00  0.00    +0.150 HD
ATOM      5  C   UNL     1       4.500  -7.245   0.000  0.00  0.00    +0.168 C 
ATOM     16  S   UNL     1       5.250  -5.946   0.000  0.00  0.00    -0.081 S 
ATOM     17  C   UNL     1       4.500  -4.647   0.000  0.00  0.00    +0.090 C 
ATOM     27  C   UNL     1       3.000  -4.647   0.000  0.00  0.00    +0.141 C 
ENDROOT
BRANCH   5   6
ATOM      6  C   UNL     1       5.250  -8.544   0.000  0.00  0.00    -0.013 A 
ATOM      7  C   UNL     1       4.500  -9.843   0.000  0.00  0.00    +0.055 A 
ATOM      8  C   UNL     1       5.250 -11.142   0.000  0.00  0.00    +0.162 A 
ATOM     11  C   UNL     1       6.750 -11.142   0.000  0.00  0.00    +0.158 A 
ATOM     14  C   UNL     1       7.500  -9.843   0.000  0.00  0.00    +0.049 A 
ATOM     15  C   UNL     1       6.750  -8.544   0.000  0.00  0.00    +0.010 A 
BRANCH   8   9
ATOM      9  O   UNL     1       4.500 -12.441   0.000  0.00  0.00    -0.491 OA
ATOM     10  C   UNL     1       5.250 -13.740   0.000  0.00  0.00    +0.277 C 
ENDBRANCH   8   9
BRANCH  11  12
ATOM     12  O   UNL     1       7.500 -12.441   0.000  0.00  0.00    -0.503 OA
ATOM     13  H   UNL     1       7.032 -13.253   0.000  0.00  0.00    +0.292 HD
ENDBRANCH  11  12
ENDBRANCH   5   6
BRANCH  17  18
ATOM     18  N   UNL     1       5.250  -3.348   0.000  0.00  0.00    -0.308 N 
ATOM     19  H   UNL     1       4.758  -2.495   0.000  0.00  0.00    +0.153 HD
BRANCH  18  20
ATOM     20  C   UNL     1       6.750  -3.348   0.000  0.00  0.00    +0.032 A 
ATOM     21  C   UNL     1       7.500  -4.647   0.000  0.00  0.00    +0.023 A 
ATOM     22  C   UNL     1       9.000  -4.647   0.000  0.00  0.00    +0.002 A 
ATOM     23  C   UNL     1       9.750  -3.348   0.000  0.00  0.00    +0.003 A 
ATOM     24  C   UNL     1       9.000  -2.049   0.000  0.00  0.00    -0.049 A 
ATOM     25  C   UNL     1       9.750  -0.750   0.000  0.00  0.00    +0.044 C 
ATOM     26  C   UNL     1       7.500  -2.049   0.000  0.00  0.00    +0.026 A 
ENDBRANCH  18  20
ENDBRANCH  17  18
BRANCH  27  28
ATOM     28  C   UNL     1       2.250  -3.348   0.000  0.00  0.00    +0.107 C 
ATOM     29  N   UNL     1       1.500  -2.049   0.000  0.00  0.00    -0.191 NA
ENDBRANCH  27  28
TORSDOF 6