REMARK  Name = 329065
REMARK  7 active torsions:
REMARK  status: ('A' for Active; 'I' for Inactive)
REMARK    1  A    between atoms: C_7  and  S_9
REMARK    2  A    between atoms: S_9  and  C_21
REMARK    3  A    between atoms: C_11  and  C_21
REMARK    4  A    between atoms: C_15  and  N_24
REMARK    5  A    between atoms: C_16  and  C_25
REMARK    6  A    between atoms: C_20  and  C_26
REMARK    7  A    between atoms: N_22  and  N_23
REMARK                            x       y       z     vdW  Elec       q    Type
REMARK                         _______ _______ _______ _____ _____    ______ ____
ROOT
ATOM     10  C   UNL     1       2.359 -10.699   0.000  0.00  0.00    +0.239 C 
ATOM     11  N   UNL     1       3.826 -10.387   0.000  0.00  0.00    -0.233 N 
ATOM     12  H   UNL     1       4.485 -11.119   0.000  0.00  0.00    +0.173 HD
ATOM     27  O   UNL     1       1.355  -9.584   0.000  0.00  0.00    -0.273 OA
ENDROOT
BRANCH  11  13
ATOM     13  N   UNL     1       4.289  -8.960   0.000  0.00  0.00    -0.218 N 
ATOM     14  H   UNL     1       5.252  -8.756   0.000  0.00  0.00    +0.174 HD
ATOM     15  C   UNL     1       3.286  -7.846   0.000  0.00  0.00    +0.320 C 
ATOM     16  N   UNL     1       3.749  -6.419   0.000  0.00  0.00    -0.268 N 
ATOM     17  H   UNL     1       4.712  -6.214   0.000  0.00  0.00    +0.156 HD
ATOM     26  O   UNL     1       1.818  -8.158   0.000  0.00  0.00    -0.251 OA
BRANCH  16  18
ATOM     18  C   UNL     1       2.745  -5.304   0.000  0.00  0.00    +0.038 A 
ATOM     19  C   UNL     1       3.209  -3.878   0.000  0.00  0.00    -0.029 A 
ATOM     20  C   UNL     1       4.676  -3.566   0.000  0.00  0.00    +0.045 C 
ATOM     21  C   UNL     1       2.205  -2.763   0.000  0.00  0.00    +0.008 A 
ATOM     22  C   UNL     1       0.738  -3.075   0.000  0.00  0.00    -0.050 A 
ATOM     23  C   UNL     1      -0.266  -1.960   0.000  0.00  0.00    +0.044 C 
ATOM     24  C   UNL     1       0.275  -4.501   0.000  0.00  0.00    +0.005 A 
ATOM     25  C   UNL     1       1.278  -5.616   0.000  0.00  0.00    +0.024 A 
ENDBRANCH  16  18
ENDBRANCH  11  13
BRANCH  10   9
ATOM      9  C   UNL     1       1.895 -12.125   0.000  0.00  0.00    +0.167 C 
BRANCH   9   8
ATOM      8  S   UNL     1       0.428 -12.437   0.000  0.00  0.00    -0.143 S 
BRANCH   8   7
ATOM      1  C   UNL     1      -4.060 -14.327   0.000  0.00  0.00    +0.000 A 
ATOM      2  C   UNL     1      -4.060 -15.827   0.000  0.00  0.00    +0.000 A 
ATOM      3  C   UNL     1      -2.761 -16.577   0.000  0.00  0.00    +0.004 A 
ATOM      4  C   UNL     1      -1.462 -15.827   0.000  0.00  0.00    -0.043 A 
ATOM      5  C   UNL     1      -0.036 -16.291   0.000  0.00  0.00    +0.037 C 
ATOM      6  C   UNL     1       0.846 -15.077   0.000  0.00  0.00    +0.023 C 
ATOM      7  C   UNL     1      -0.036 -13.864   0.000  0.00  0.00    +0.077 C 
ATOM     28  C   UNL     1      -1.462 -14.327   0.000  0.00  0.00    -0.031 A 
ATOM     29  C   UNL     1      -2.761 -13.577   0.000  0.00  0.00    +0.005 A 
ENDBRANCH   8   7
ENDBRANCH   9   8
ENDBRANCH  10   9
TORSDOF 5