REMARK  Name = 305329
REMARK  1 active torsions:
REMARK  status: ('A' for Active; 'I' for Inactive)
REMARK    1  A    between atoms: C_4  and  N_17
REMARK                            x       y       z     vdW  Elec       q    Type
REMARK                         _______ _______ _______ _____ _____    ______ ____
ROOT
ATOM      9  N   UNL     1      -0.663   1.275   0.000  0.00  0.00    -0.002 NA
ATOM     10  C   UNL     1      -1.396  -0.034   0.000  0.00  0.00    +0.331 C 
ATOM     11  N   UNL     1      -0.768  -1.396   0.000  0.00  0.00    -0.166 N 
ATOM     12  H   UNL     1       0.198  -1.588   0.000  0.00  0.00    +0.302 HD
ATOM     13  C   UNL     1      -1.869  -2.414   0.000  0.00  0.00    +0.334 C 
ATOM     14  O   UNL     1      -1.692  -3.904   0.000  0.00  0.00    -0.242 OA
ATOM     15  C   UNL     1      -3.178  -1.682   0.000  0.00  0.00    +0.076 A 
ATOM     16  C   UNL     1      -4.598  -2.164   0.000  0.00  0.00    +0.016 A 
ATOM     17  C   UNL     1      -5.726  -1.175   0.000  0.00  0.00    +0.001 A 
ATOM     18  C   UNL     1      -5.434   0.296   0.000  0.00  0.00    +0.001 A 
ATOM     19  C   UNL     1      -4.013   0.778   0.000  0.00  0.00    +0.017 A 
ATOM     20  C   UNL     1      -2.886  -0.210   0.000  0.00  0.00    +0.080 A 
ENDROOT
BRANCH   9   8
ATOM      1  C   UNL     1       4.423   2.843   0.000  0.00  0.00    +0.030 A 
ATOM      2  C   UNL     1       3.135   2.076   0.000  0.00  0.00    +0.093 A 
ATOM      3  C   UNL     1       3.155   0.576   0.000  0.00  0.00    +0.069 A 
ATOM      4  C   UNL     1       4.463  -0.157   0.000  0.00  0.00    +0.028 A 
ATOM      5  C   UNL     1       5.752   0.611   0.000  0.00  0.00    +0.002 A 
ATOM      6  N   UNL     1       1.734   0.094   0.000  0.00  0.00    -0.301 N 
ATOM      7  H   UNL     1       1.290  -1.339   0.000  0.00  0.00    +0.171 HD
ATOM      8  C   UNL     1       0.837   1.295   0.000  0.00  0.00    +0.345 A 
ATOM     21  N   UNL     1       1.702   2.520   0.000  0.00  0.00    -0.188 NA
ATOM     22  C   UNL     1       5.732   2.110   0.000  0.00  0.00    +0.002 A 
ENDBRANCH   9   8
TORSDOF 1