REMARK  Name = 352888
REMARK  8 active torsions:
REMARK  status: ('A' for Active; 'I' for Inactive)
REMARK    1  A    between atoms: C_1  and  N_16
REMARK    2  A    between atoms: C_2  and  C_10
REMARK    3  A    between atoms: C_9  and  C_11
REMARK    4  A    between atoms: C_10  and  O_13
REMARK    5  A    between atoms: C_11  and  N_15
REMARK    6  A    between atoms: C_12  and  N_15
REMARK    7  A    between atoms: C_12  and  C_19
REMARK    8  A    between atoms: C_12  and  C_20
REMARK                            x       y       z     vdW  Elec       q    Type
REMARK                         _______ _______ _______ _____ _____    ______ ____
ROOT
ATOM      1  C   UNL     1       3.348   3.000   0.000  0.00  0.00    +0.280 A 
ATOM      5  C   UNL     1       4.647   3.750   0.000  0.00  0.00    +0.107 A 
ATOM      6  C   UNL     1       5.946   3.000   0.000  0.00  0.00    +0.037 A 
ATOM      7  N   UNL     1       7.245   3.750   0.000  0.00  0.00    -0.339 N 
ATOM      8  H   UNL     1       7.245   4.734   0.000  0.00  0.00    +0.146 HD
ATOM      9  C   UNL     1       8.544   3.000   0.000  0.00  0.00    +0.084 C 
ATOM     16  C   UNL     1       8.544   1.500   0.000  0.00  0.00    +0.028 C 
ATOM     17  C   UNL     1       7.245   0.750   0.000  0.00  0.00    +0.039 C 
ATOM     18  C   UNL     1       5.946   1.500   0.000  0.00  0.00    -0.026 A 
ATOM     19  C   UNL     1       4.647   0.750   0.000  0.00  0.00    +0.018 A 
ATOM     20  C   UNL     1       3.348   1.500   0.000  0.00  0.00    +0.055 A 
ENDROOT
BRANCH   1   2
ATOM      2  N   UNL     1       2.049   3.750   0.000  0.00  0.00    +0.080 N 
ATOM      3  O   UNL     1       2.049   5.250   0.000  0.00  0.00    +0.041 OA
ATOM      4  O   UNL     1       0.750   3.000   0.000  0.00  0.00    -0.576 OA
ENDBRANCH   1   2
BRANCH   9  10
ATOM     10  C   UNL     1       9.843   3.750   0.000  0.00  0.00    +0.103 C 
BRANCH  10  11
ATOM     11  N   UNL     1      11.142   3.000   0.000  0.00  0.00    -0.312 NA
ATOM     12  H   UNL     1      11.142   1.980   0.000  0.00  0.00    +0.122 HD
BRANCH  11  13
ATOM     13  C   UNL     1      12.441   3.750   0.000  0.00  0.00    +0.048 C 
ATOM     14  C   UNL     1      13.740   3.000   0.000  0.00  0.00    +0.023 C 
ATOM     15  C   UNL     1      12.441   5.250   0.000  0.00  0.00    +0.023 C 
ENDBRANCH  11  13
ENDBRANCH  10  11
ENDBRANCH   9  10
BRANCH  20  21
ATOM     21  C   UNL     1       2.049   0.750   0.000  0.00  0.00    +0.197 C 
BRANCH  21  22
ATOM     22  O   UNL     1       0.750   1.500   0.000  0.00  0.00    -0.390 OA
ATOM     23  H   UNL     1       0.750   2.470   0.000  0.00  0.00    +0.210 HD
ENDBRANCH  21  22
ENDBRANCH  20  21
TORSDOF 6