REMARK  Name = 343230
REMARK  2 active torsions:
REMARK  status: ('A' for Active; 'I' for Inactive)
REMARK    1  A    between atoms: N_3  and  N_15
REMARK    2  A    between atoms: N_11  and  N_16
REMARK                            x       y       z     vdW  Elec       q    Type
REMARK                         _______ _______ _______ _____ _____    ______ ____
ROOT
ATOM      7  N   UNL     1       2.049  -3.000   0.000  0.00  0.00    -0.231 N 
ATOM      8  H   UNL     1       2.049  -3.984   0.000  0.00  0.00    +0.171 HD
ATOM      9  C   UNL     1       3.348  -2.250   0.000  0.00  0.00    +0.327 C 
ATOM     10  N   UNL     1       4.647  -3.000   0.000  0.00  0.00    -0.231 N 
ATOM     11  H   UNL     1       5.500  -2.508   0.000  0.00  0.00    +0.171 HD
ATOM     18  O   UNL     1       3.348  -0.750   0.000  0.00  0.00    -0.250 OA
ENDROOT
BRANCH   7   6
ATOM      1  C   UNL     1      -0.549  -3.000   0.000  0.00  0.00    +0.105 C 
ATOM      2  C   UNL     1      -1.848  -2.250   0.000  0.00  0.00    +0.017 C 
ATOM      3  C   UNL     1      -1.848  -0.750   0.000  0.00  0.00    +0.003 C 
ATOM      4  C   UNL     1      -0.549   0.000   0.000  0.00  0.00    +0.017 C 
ATOM      5  C   UNL     1       0.750  -0.750   0.000  0.00  0.00    +0.105 C 
ATOM      6  N   UNL     1       0.750  -2.250   0.000  0.00  0.00    -0.226 NA
ENDBRANCH   7   6
BRANCH  10  12
ATOM     12  N   UNL     1       4.647  -4.500   0.000  0.00  0.00    -0.226 NA
ATOM     13  C   UNL     1       5.946  -5.250   0.000  0.00  0.00    +0.105 C 
ATOM     14  C   UNL     1       5.946  -6.750   0.000  0.00  0.00    +0.017 C 
ATOM     15  C   UNL     1       4.647  -7.500   0.000  0.00  0.00    +0.003 C 
ATOM     16  C   UNL     1       3.348  -6.750   0.000  0.00  0.00    +0.017 C 
ATOM     17  C   UNL     1       3.348  -5.250   0.000  0.00  0.00    +0.105 C 
ENDBRANCH  10  12
TORSDOF 2