REMARK  Name = 343783
REMARK  4 active torsions:
REMARK  status: ('A' for Active; 'I' for Inactive)
REMARK    1  A    between atoms: C_9  and  S_10
REMARK    2  A    between atoms: S_10  and  C_15
REMARK    3  A    between atoms: N_11  and  C_12
REMARK    4  A    between atoms: C_12  and  C_13
REMARK                            x       y       z     vdW  Elec       q    Type
REMARK                         _______ _______ _______ _____ _____    ______ ____
ROOT
ATOM      1  N   UNL     1       4.271  -4.398   0.000  0.00  0.00    -0.219 NA
ATOM      2  C   UNL     1       4.271  -5.898   0.000  0.00  0.00    +0.224 A 
ATOM      3  N   UNL     1       5.570  -6.648   0.000  0.00  0.00    -0.227 NA
ATOM      4  C   UNL     1       6.870  -5.898   0.000  0.00  0.00    +0.134 A 
ATOM      5  S   UNL     1       8.296  -6.362   0.000  0.00  0.00    -0.041 S 
ATOM      6  C   UNL     1       9.178  -5.148   0.000  0.00  0.00    +0.137 A 
ATOM      9  N   UNL     1       8.296  -3.935   0.000  0.00  0.00    -0.228 NA
ATOM     10  C   UNL     1       6.870  -4.398   0.000  0.00  0.00    +0.137 A 
ATOM     11  C   UNL     1       5.570  -3.648   0.000  0.00  0.00    +0.149 A 
ATOM     12  N   UNL     1       5.570  -2.148   0.000  0.00  0.00    -0.324 N 
ATOM     13  H   UNL     1       4.718  -1.656   0.000  0.00  0.00    +0.148 HD
ENDROOT
BRANCH   6   7
ATOM      7  S   UNL     1      10.678  -5.148   0.000  0.00  0.00    -0.102 S 
ATOM      8  C   UNL     1      11.428  -3.849   0.000  0.00  0.00    +0.092 C 
ENDBRANCH   6   7
BRANCH  12  14
ATOM     14  C   UNL     1       6.870  -1.398   0.000  0.00  0.00    +0.130 C 
BRANCH  14  15
ATOM     15  C   UNL     1       6.870   0.102   0.000  0.00  0.00    -0.016 C 
ATOM     16  C   UNL     1       5.570   0.852   0.000  0.00  0.00    +0.005 C 
ENDBRANCH  14  15
ENDBRANCH  12  14
TORSDOF 3