REMARK  Name = 294153
REMARK  4 active torsions:
REMARK  status: ('A' for Active; 'I' for Inactive)
REMARK    1  A    between atoms: C_4  and  N_15
REMARK    2  A    between atoms: C_8  and  N_9
REMARK    3  A    between atoms: C_10  and  C_18
REMARK    4  A    between atoms: C_14  and  N_19
REMARK                            x       y       z     vdW  Elec       q    Type
REMARK                         _______ _______ _______ _____ _____    ______ ____
ROOT
ATOM      1  C   UNL     1      -3.597   2.092   0.000  0.00  0.00    +0.099 A 
ATOM      2  N   UNL     1      -2.162   1.653   0.000  0.00  0.00    -0.240 N 
ATOM      3  C   UNL     1      -1.528   0.293   0.000  0.00  0.00    +0.397 A 
ATOM      7  C   UNL     1      -0.040   0.476   0.000  0.00  0.00    +0.240 A 
ATOM     17  N   UNL     1       0.247   1.948   0.000  0.00  0.00    -0.204 NA
ATOM     18  C   UNL     1      -1.065   2.676   0.000  0.00  0.00    +0.145 A 
ATOM     19  C   UNL     1      -1.402   4.137   0.000  0.00  0.00    +0.047 A 
ATOM     20  C   UNL     1      -2.837   4.576   0.000  0.00  0.00    +0.005 A 
ATOM     21  C   UNL     1      -3.934   3.553   0.000  0.00  0.00    +0.018 A 
ENDROOT
BRANCH   7   8
ATOM      8  N   UNL     1       0.983  -0.621   0.000  0.00  0.00    -0.274 N 
ATOM      9  C   UNL     1       0.697  -2.094   0.000  0.00  0.00    +0.119 A 
ATOM     10  C   UNL     1      -0.662  -2.727   0.000  0.00  0.00    +0.087 C 
ATOM     11  N   UNL     1       2.009  -2.821   0.000  0.00  0.00    -0.167 NA
ATOM     12  C   UNL     1       3.106  -1.798   0.000  0.00  0.00    +0.385 A 
ATOM     16  C   UNL     1       2.472  -0.438   0.000  0.00  0.00    +0.201 A 
BRANCH  12  13
ATOM     13  N   UNL     1       4.578  -2.084   0.000  0.00  0.00    +0.102 N 
ATOM     14  O   UNL     1       5.067  -3.503   0.000  0.00  0.00    +0.043 OA
ATOM     15  O   UNL     1       5.563  -0.952   0.000  0.00  0.00    -0.575 OA
ENDBRANCH  12  13
ENDBRANCH   7   8
BRANCH   3   4
ATOM      4  N   UNL     1      -2.256  -1.018   0.000  0.00  0.00    +0.103 N 
ATOM      5  O   UNL     1      -1.483  -2.304   0.000  0.00  0.00    +0.043 OA
ATOM      6  O   UNL     1      -3.756  -1.045   0.000  0.00  0.00    -0.575 OA
ENDBRANCH   3   4
TORSDOF 3