REMARK  Name = 25678
REMARK  5 active torsions:
REMARK  status: ('A' for Active; 'I' for Inactive)
REMARK    1  A    between atoms: C_3  and  C_7
REMARK    2  A    between atoms: C_5  and  C_21
REMARK    3  A    between atoms: C_6  and  C_20
REMARK    4  A    between atoms: C_10  and  C_17
REMARK    5  A    between atoms: C_17  and  O_19
REMARK                            x       y       z     vdW  Elec       q    Type
REMARK                         _______ _______ _______ _____ _____    ______ ____
ROOT
ATOM      1  N   UNL     1      -5.471  -5.524   0.000  0.00  0.00    -0.247 NA
ATOM      2  C   UNL     1      -6.770  -6.274   0.000  0.00  0.00    +0.072 A 
ATOM      3  C   UNL     1      -8.069  -5.524   0.000  0.00  0.00    +0.028 A 
ATOM      4  C   UNL     1      -9.368  -6.274   0.000  0.00  0.00    +0.002 A 
ATOM      5  C   UNL     1      -9.368  -7.774   0.000  0.00  0.00    +0.001 A 
ATOM      6  C   UNL     1      -8.069  -8.524   0.000  0.00  0.00    +0.011 A 
ATOM      7  C   UNL     1      -6.770  -7.774   0.000  0.00  0.00    +0.014 A 
ATOM      8  C   UNL     1      -5.471  -8.524   0.000  0.00  0.00    +0.070 A 
ATOM     13  C   UNL     1      -4.172  -7.774   0.000  0.00  0.00    +0.044 A 
ATOM     14  C   UNL     1      -4.172  -6.274   0.000  0.00  0.00    +0.073 A 
ENDROOT
BRANCH  14  15
ATOM     15  C   UNL     1      -2.873  -5.524   0.000  0.00  0.00    +0.003 A 
ATOM     16  C   UNL     1      -1.574  -6.274   0.000  0.00  0.00    -0.041 A 
ATOM     17  C   UNL     1      -1.574  -7.774   0.000  0.00  0.00    +0.044 C 
ATOM     18  C   UNL     1      -0.275  -5.524   0.000  0.00  0.00    +0.007 A 
ATOM     19  C   UNL     1      -0.275  -4.024   0.000  0.00  0.00    -0.050 A 
ATOM     20  C   UNL     1       1.025  -3.275   0.000  0.00  0.00    +0.044 C 
ATOM     21  C   UNL     1      -1.574  -3.275   0.000  0.00  0.00    +0.004 A 
ATOM     22  C   UNL     1      -2.873  -4.024   0.000  0.00  0.00    +0.010 A 
ENDBRANCH  14  15
BRANCH   8   9
ATOM      9  C   UNL     1      -5.471 -10.025   0.000  0.00  0.00    +0.338 C 
ATOM     12  O   UNL     1      -6.770 -10.775   0.000  0.00  0.00    -0.245 OA
BRANCH   9  10
ATOM     10  O   UNL     1      -4.172 -10.775   0.000  0.00  0.00    -0.477 OA
ATOM     11  H   UNL     1      -4.172 -11.711   0.000  0.00  0.00    +0.295 HD
ENDBRANCH   9  10
ENDBRANCH   8   9
TORSDOF 3