REMARK  Name = 375105
REMARK  2 active torsions:
REMARK  status: ('A' for Active; 'I' for Inactive)
REMARK    1  A    between atoms: N_7  and  C_21
REMARK    2  A    between atoms: C_21  and  C_22
REMARK                            x       y       z     vdW  Elec       q    Type
REMARK                         _______ _______ _______ _____ _____    ______ ____
ROOT
ATOM      1  C   UNL     1      -0.432   7.644   0.000  0.00  0.00    +0.001 A 
ATOM      2  C   UNL     1      -1.314   6.431   0.000  0.00  0.00    +0.002 A 
ATOM      3  C   UNL     1      -0.704   5.061   0.000  0.00  0.00    +0.026 A 
ATOM      4  C   UNL     1       0.788   4.904   0.000  0.00  0.00    +0.050 A 
ATOM      5  N   UNL     1       1.670   3.690   0.000  0.00  0.00    -0.340 N 
ATOM      8  C   UNL     1       3.096   4.154   0.000  0.00  0.00    +0.052 A 
ATOM      9  C   UNL     1       4.396   3.404   0.000  0.00  0.00    +0.028 A 
ATOM     10  C   UNL     1       5.695   4.154   0.000  0.00  0.00    +0.030 A 
ATOM     11  C   UNL     1       5.695   5.654   0.000  0.00  0.00    +0.073 A 
ATOM     12  N   UNL     1       6.994   6.404   0.000  0.00  0.00    -0.313 N 
ATOM     13  C   UNL     1       8.420   5.940   0.000  0.00  0.00    +0.092 A 
ATOM     14  C   UNL     1       9.302   7.154   0.000  0.00  0.00    +0.020 A 
ATOM     15  C   UNL     1       8.420   8.367   0.000  0.00  0.00    +0.029 A 
ATOM     16  C   UNL     1       6.994   7.904   0.000  0.00  0.00    +0.065 A 
ATOM     17  C   UNL     1       5.694   8.654   0.000  0.00  0.00    +0.137 A 
ATOM     18  N   UNL     1       4.396   7.904   0.000  0.00  0.00    -0.251 NA
ATOM     19  C   UNL     1       4.396   6.404   0.000  0.00  0.00    +0.097 A 
ATOM     20  C   UNL     1       3.096   5.654   0.000  0.00  0.00    +0.035 A 
ATOM     21  C   UNL     1       1.670   6.117   0.000  0.00  0.00    +0.010 A 
ATOM     22  C   UNL     1       1.060   7.488   0.000  0.00  0.00    +0.010 A 
ENDROOT
BRANCH   5   6
ATOM      6  C   UNL     1       1.206   2.264   0.000  0.00  0.00    +0.119 C 
ATOM      7  C   UNL     1      -0.261   1.952   0.000  0.00  0.00    +0.027 C 
ENDBRANCH   5   6
TORSDOF 1