REMARK  Name = 316458
REMARK  5 active torsions:
REMARK  status: ('A' for Active; 'I' for Inactive)
REMARK    1  A    between atoms: C_5  and  C_16
REMARK    2  A    between atoms: C_8  and  O_18
REMARK    3  A    between atoms: C_10  and  O_19
REMARK    4  A    between atoms: N_11  and  C_12
REMARK    5  A    between atoms: O_15  and  C_16
REMARK                            x       y       z     vdW  Elec       q    Type
REMARK                         _______ _______ _______ _____ _____    ______ ____
ROOT
ATOM      1  N   UNL     1       2.324  -1.025   0.000  0.00  0.00    -0.219 NA
ATOM      2  C   UNL     1       2.324  -2.525   0.000  0.00  0.00    +0.225 A 
ATOM      3  N   UNL     1       3.623  -3.275   0.000  0.00  0.00    -0.216 NA
ATOM      4  C   UNL     1       4.922  -2.525   0.000  0.00  0.00    +0.166 A 
ATOM      5  N   UNL     1       6.348  -2.988   0.000  0.00  0.00    -0.305 N 
ATOM     18  C   UNL     1       7.230  -1.775   0.000  0.00  0.00    +0.202 A 
ATOM     19  N   UNL     1       6.348  -0.561   0.000  0.00  0.00    -0.231 NA
ATOM     20  C   UNL     1       4.922  -1.025   0.000  0.00  0.00    +0.147 A 
ATOM     21  C   UNL     1       3.623  -0.275   0.000  0.00  0.00    +0.147 A 
ATOM     22  N   UNL     1       3.623   1.226   0.000  0.00  0.00    -0.341 N 
ATOM     23  H   UNL     1       2.770   1.718   0.000  0.00  0.00    +0.144 HD
ATOM     24  H   UNL     1       4.475   1.718   0.000  0.00  0.00    +0.144 HD
ENDROOT
BRANCH   5   6
ATOM      6  C   UNL     1       6.812  -4.415   0.000  0.00  0.00    +0.144 C 
ATOM      7  C   UNL     1       8.238  -4.878   0.000  0.00  0.00    +0.174 C 
ATOM     10  C   UNL     1       8.238  -6.378   0.000  0.00  0.00    +0.173 C 
ATOM     13  C   UNL     1       6.812  -6.842   0.000  0.00  0.00    -0.016 C 
ATOM     17  C   UNL     1       5.930  -5.628   0.000  0.00  0.00    +0.005 C 
BRANCH   7   8
ATOM      8  O   UNL     1       9.452  -3.997   0.000  0.00  0.00    -0.387 OA
ATOM      9  H   UNL     1      10.338  -4.391   0.000  0.00  0.00    +0.210 HD
ENDBRANCH   7   8
BRANCH  10  11
ATOM     11  O   UNL     1       9.452  -7.260   0.000  0.00  0.00    -0.385 OA
ATOM     12  H   UNL     1       9.351  -8.224   0.000  0.00  0.00    +0.210 HD
ENDBRANCH  10  11
BRANCH  13  14
ATOM     14  C   UNL     1       6.348  -8.268   0.000  0.00  0.00    +0.189 C 
BRANCH  14  15
ATOM     15  O   UNL     1       7.352  -9.383   0.000  0.00  0.00    -0.391 OA
ATOM     16  H   UNL     1       7.052 -10.306   0.000  0.00  0.00    +0.210 HD
ENDBRANCH  14  15
ENDBRANCH  13  14
ENDBRANCH   5   6
TORSDOF 5