REMARK  Name = 305780
REMARK  4 active torsions:
REMARK  status: ('A' for Active; 'I' for Inactive)
REMARK    1  A    between atoms: C_5  and  S_19
REMARK    2  A    between atoms: C_9  and  S_19
REMARK    3  A    between atoms: C_24  and  C_25
REMARK    4  A    between atoms: C_25  and  O_26
REMARK                            x       y       z     vdW  Elec       q    Type
REMARK                         _______ _______ _______ _____ _____    ______ ____
ROOT
ATOM      1  C   UNL     1      -9.194  -6.750   0.000  0.00  0.00    +0.034 C 
ATOM      2  C   UNL     1      -7.895  -7.500   0.000  0.00  0.00    +0.152 C 
ENDROOT
BRANCH   2   3
ATOM      3  O   UNL     1      -6.596  -6.750   0.000  0.00  0.00    -0.395 OA
ATOM      4  H   UNL     1      -5.756  -7.235   0.000  0.00  0.00    +0.209 HD
ENDBRANCH   2   3
TORSDOF 1