REMARK  Name = 29471
REMARK  4 active torsions:
REMARK  status: ('A' for Active; 'I' for Inactive)
REMARK    1  A    between atoms: C_4  and  N_8
REMARK    2  A    between atoms: N_11  and  C_12
REMARK    3  A    between atoms: C_12  and  C_13
REMARK    4  A    between atoms: C_12  and  C_14
REMARK                            x       y       z     vdW  Elec       q    Type
REMARK                         _______ _______ _______ _____ _____    ______ ____
ROOT
ATOM      7  N   UNL     1      -4.647  -0.750   0.000  0.00  0.00    -0.269 N 
ATOM      8  H   UNL     1      -4.647   0.234   0.000  0.00  0.00    +0.156 HD
ATOM      9  C   UNL     1      -3.348  -1.500   0.000  0.00  0.00    +0.304 C 
ATOM     10  N   UNL     1      -3.348  -3.000   0.000  0.00  0.00    -0.297 N 
ATOM     11  H   UNL     1      -4.201  -3.492   0.000  0.00  0.00    +0.151 HD
ATOM     15  O   UNL     1      -2.049  -0.750   0.000  0.00  0.00    -0.253 OA
ENDROOT
BRANCH   7   6
ATOM      1 CL   UNL     1      -7.245  -5.250   0.000  0.00  0.00    -0.083 Cl
ATOM      2  C   UNL     1      -7.245  -3.750   0.000  0.00  0.00    +0.043 A 
ATOM      3  C   UNL     1      -8.544  -3.000   0.000  0.00  0.00    +0.020 A 
ATOM      4  C   UNL     1      -8.544  -1.500   0.000  0.00  0.00    +0.003 A 
ATOM      5  C   UNL     1      -7.245  -0.750   0.000  0.00  0.00    +0.023 A 
ATOM      6  C   UNL     1      -5.946  -1.500   0.000  0.00  0.00    +0.036 A 
ATOM     16  C   UNL     1      -5.946  -3.000   0.000  0.00  0.00    +0.043 A 
ENDBRANCH   7   6
BRANCH  10  12
ATOM     12  C   UNL     1      -2.049  -3.750   0.000  0.00  0.00    +0.068 C 
ATOM     13  C   UNL     1      -2.049  -5.250   0.000  0.00  0.00    +0.027 C 
ATOM     14  C   UNL     1      -0.750  -3.000   0.000  0.00  0.00    +0.027 C 
ENDBRANCH  10  12
TORSDOF 2