REMARK  Name = 379651
REMARK  2 active torsions:
REMARK  status: ('A' for Active; 'I' for Inactive)
REMARK    1  A    between atoms: C_2  and  C_17
REMARK    2  A    between atoms: C_11  and  C_12
REMARK                            x       y       z     vdW  Elec       q    Type
REMARK                         _______ _______ _______ _____ _____    ______ ____
ROOT
ATOM      1  C   UNL     1       4.647   5.250   0.000  0.00  0.00    +0.098 A 
ATOM      2  C   UNL     1       4.647   3.750   0.000  0.00  0.00    +0.053 A 
ATOM      9  N   UNL     1       5.946   3.000   0.000  0.00  0.00    -0.339 N 
ATOM     10  H   UNL     1       5.946   1.500   0.000  0.00  0.00    +0.167 HD
ATOM     11  C   UNL     1       7.245   3.750   0.000  0.00  0.00    +0.139 A 
ATOM     12  C   UNL     1       8.672   3.287   0.000  0.00  0.00    +0.079 A 
ATOM     13  C   UNL     1       9.553   4.500   0.000  0.00  0.00    +0.130 A 
ATOM     19  N   UNL     1       8.672   5.713   0.000  0.00  0.00    -0.159 NA
ATOM     20  N   UNL     1       7.245   5.250   0.000  0.00  0.00    -0.179 N 
ATOM     21  C   UNL     1       5.946   6.000   0.000  0.00  0.00    +0.275 A 
ATOM     22  O   UNL     1       5.946   7.500   0.000  0.00  0.00    -0.266 OA
ENDROOT
BRANCH   2   3
ATOM      3  C   UNL     1       3.348   3.000   0.000  0.00  0.00    -0.001 A 
ATOM      4  C   UNL     1       2.049   3.750   0.000  0.00  0.00    +0.010 A 
ATOM      5  C   UNL     1       0.750   3.000   0.000  0.00  0.00    +0.001 A 
ATOM      6  C   UNL     1       0.750   1.500   0.000  0.00  0.00    +0.000 A 
ATOM      7  C   UNL     1       2.049   0.750   0.000  0.00  0.00    +0.001 A 
ATOM      8  C   UNL     1       3.348   1.500   0.000  0.00  0.00    +0.010 A 
ENDBRANCH   2   3
BRANCH  13  14
ATOM     14  C   UNL     1      11.054   4.500   0.000  0.00  0.00    +0.155 A 
ATOM     15  C   UNL     1      11.935   3.287   0.000  0.00  0.00    +0.051 A 
ATOM     16  C   UNL     1      13.362   3.750   0.000  0.00  0.00    +0.042 A 
ATOM     17  C   UNL     1      13.362   5.250   0.000  0.00  0.00    +0.196 A 
ATOM     18  O   UNL     1      11.935   5.713   0.000  0.00  0.00    -0.461 OA
ENDBRANCH  13  14
TORSDOF 2