REMARK  Name = 354261
REMARK  7 active torsions:
REMARK  status: ('A' for Active; 'I' for Inactive)
REMARK    1  A    between atoms: N_2  and  C_17
REMARK    2  A    between atoms: C_10  and  C_25
REMARK    3  A    between atoms: C_12  and  C_23
REMARK    4  A    between atoms: C_23  and  O_29
REMARK    5  A    between atoms: C_25  and  O_27
REMARK    6  A    between atoms: O_27  and  C_28
REMARK    7  A    between atoms: O_29  and  C_30
REMARK                            x       y       z     vdW  Elec       q    Type
REMARK                         _______ _______ _______ _____ _____    ______ ____
ROOT
ATOM      1  N   UNL     1      -7.163  -1.909   0.000  0.00  0.00    -0.078 NA
ATOM      2  N   UNL     1      -7.163  -3.409   0.000  0.00  0.00    -0.201 N 
ATOM      9  C   UNL     1      -5.736  -3.872   0.000  0.00  0.00    +0.134 C 
ATOM     10  C   UNL     1      -5.126  -5.243   0.000  0.00  0.00    +0.051 C 
ATOM     11  C   UNL     1      -6.008  -4.029   0.000  0.00  0.00    +0.010 C 
ATOM     12  C   UNL     1      -5.696  -2.562   0.000  0.00  0.00    +0.001 C 
ATOM     13  C   UNL     1      -4.397  -1.812   0.000  0.00  0.00    +0.010 C 
ATOM     14  C   UNL     1      -3.363  -2.816   0.000  0.00  0.00    +0.055 C 
ATOM     15  C   UNL     1      -2.753  -4.186   0.000  0.00  0.00    +0.052 C 
ATOM     20  C   UNL     1      -3.634  -5.399   0.000  0.00  0.00    +0.052 C 
ATOM     25  C   UNL     1      -4.854  -2.659   0.000  0.00  0.00    +0.160 C 
ATOM     26  N   UNL     1      -5.736  -1.445   0.000  0.00  0.00    -0.165 NA
ENDROOT
BRANCH   2   3
ATOM      3  C   UNL     1      -8.376  -4.290   0.000  0.00  0.00    +0.053 A 
ATOM      4  C   UNL     1      -9.747  -3.680   0.000  0.00  0.00    +0.025 A 
ATOM      5  C   UNL     1     -10.960  -4.562   0.000  0.00  0.00    +0.002 A 
ATOM      6  C   UNL     1     -10.803  -6.054   0.000  0.00  0.00    +0.000 A 
ATOM      7  C   UNL     1      -9.433  -6.664   0.000  0.00  0.00    +0.002 A 
ATOM      8  C   UNL     1      -8.220  -5.782   0.000  0.00  0.00    +0.025 A 
ENDBRANCH   2   3
BRANCH  15  16
ATOM     16  C   UNL     1      -1.261  -4.343   0.000  0.00  0.00    +0.336 C 
ATOM     19  O   UNL     1      -0.651  -5.713   0.000  0.00  0.00    -0.245 OA
BRANCH  16  17
ATOM     17  O   UNL     1      -0.379  -3.129   0.000  0.00  0.00    -0.465 OA
ATOM     18  C   UNL     1      -0.989  -1.759   0.000  0.00  0.00    +0.280 C 
ENDBRANCH  16  17
ENDBRANCH  15  16
BRANCH  20  21
ATOM     21  C   UNL     1      -3.024  -6.770   0.000  0.00  0.00    +0.336 C 
ATOM     24  O   UNL     1      -1.532  -6.926   0.000  0.00  0.00    -0.245 OA
BRANCH  21  22
ATOM     22  O   UNL     1      -3.906  -7.983   0.000  0.00  0.00    -0.465 OA
ATOM     23  C   UNL     1      -3.296  -9.354   0.000  0.00  0.00    +0.280 C 
ENDBRANCH  21  22
ENDBRANCH  20  21
TORSDOF 5