REMARK  Name = 307703
REMARK  1 active torsions:
REMARK  status: ('A' for Active; 'I' for Inactive)
REMARK    1  A    between atoms: N_10  and  C_12
REMARK                            x       y       z     vdW  Elec       q    Type
REMARK                         _______ _______ _______ _____ _____    ______ ____
ROOT
ATOM      1  C   UNL     1      -1.025   4.774   0.000  0.00  0.00    +0.001 A 
ATOM      2  C   UNL     1      -1.025   3.275   0.000  0.00  0.00    +0.002 A 
ATOM      3  C   UNL     1       0.275   2.525   0.000  0.00  0.00    +0.028 A 
ATOM      4  C   UNL     1       1.574   3.275   0.000  0.00  0.00    +0.078 A 
ATOM      5  N   UNL     1       2.873   2.525   0.000  0.00  0.00    -0.237 NA
ATOM      6  C   UNL     1       4.172   3.275   0.000  0.00  0.00    +0.207 A 
ATOM      7  N   UNL     1       4.172   4.774   0.000  0.00  0.00    -0.267 N 
ATOM     15  C   UNL     1       2.873   5.524   0.000  0.00  0.00    +0.266 A 
ATOM     16  O   UNL     1       2.873   7.024   0.000  0.00  0.00    -0.267 OA
ATOM     17  C   UNL     1       1.574   4.774   0.000  0.00  0.00    +0.065 A 
ATOM     18  C   UNL     1       0.275   5.524   0.000  0.00  0.00    +0.015 A 
ENDROOT
BRANCH   7   8
ATOM      8  C   UNL     1       5.471   5.524   0.000  0.00  0.00    +0.051 A 
ATOM      9  C   UNL     1       6.770   4.774   0.000  0.00  0.00    +0.028 A 
ATOM     10  C   UNL     1       8.069   5.524   0.000  0.00  0.00    +0.022 A 
ATOM     11  C   UNL     1       8.069   7.024   0.000  0.00  0.00    +0.041 A 
ATOM     12 CL   UNL     1       9.368   7.774   0.000  0.00  0.00    -0.084 Cl
ATOM     13  C   UNL     1       6.770   7.774   0.000  0.00  0.00    +0.022 A 
ATOM     14  C   UNL     1       5.471   7.024   0.000  0.00  0.00    +0.028 A 
ENDBRANCH   7   8
TORSDOF 1