REMARK  Name = 31698
REMARK  4 active torsions:
REMARK  status: ('A' for Active; 'I' for Inactive)
REMARK    1  A    between atoms: C_10  and  O_19
REMARK    2  A    between atoms: C_13  and  N_15
REMARK    3  A    between atoms: C_16  and  C_18
REMARK    4  A    between atoms: O_19  and  C_20
REMARK                            x       y       z     vdW  Elec       q    Type
REMARK                         _______ _______ _______ _____ _____    ______ ____
ROOT
ATOM      1  C   UNL     1       2.728  -2.776   0.000  0.00  0.00    +0.001 A 
ATOM      2  C   UNL     1       4.027  -3.526   0.000  0.00  0.00    +0.001 A 
ATOM      3  C   UNL     1       4.027  -5.026   0.000  0.00  0.00    +0.012 A 
ATOM      4  C   UNL     1       2.728  -5.776   0.000  0.00  0.00    +0.026 A 
ATOM      5  C   UNL     1       2.728  -7.276   0.000  0.00  0.00    +0.149 A 
ATOM      8  C   UNL     1       1.429  -8.026   0.000  0.00  0.00    +0.084 A 
ATOM     14  C   UNL     1       0.129  -7.276   0.000  0.00  0.00    +0.008 A 
ATOM     15  C   UNL     1      -1.170  -8.026   0.000  0.00  0.00    +0.010 A 
ATOM     16  C   UNL     1      -2.469  -7.276   0.000  0.00  0.00    +0.001 A 
ATOM     17  C   UNL     1      -2.469  -5.776   0.000  0.00  0.00    +0.001 A 
ATOM     18  C   UNL     1      -1.170  -5.026   0.000  0.00  0.00    +0.009 A 
ATOM     19  C   UNL     1       0.129  -5.776   0.000  0.00  0.00    -0.008 A 
ATOM     20  C   UNL     1       1.429  -5.026   0.000  0.00  0.00    -0.007 A 
ATOM     21  C   UNL     1       1.429  -3.526   0.000  0.00  0.00    +0.009 A 
ENDROOT
BRANCH   8   9
ATOM      9  N   UNL     1       1.429  -9.526   0.000  0.00  0.00    -0.282 N 
ATOM     10  H   UNL     1       2.281 -10.018   0.000  0.00  0.00    +0.155 HD
ATOM     11  C   UNL     1       0.129 -10.276   0.000  0.00  0.00    +0.214 C 
ATOM     12  C   UNL     1       0.130 -11.776   0.000  0.00  0.00    +0.109 C 
ATOM     13  O   UNL     1      -1.170  -9.526   0.000  0.00  0.00    -0.276 OA
ENDBRANCH   8   9
BRANCH   5   6
ATOM      6  O   UNL     1       4.027  -8.026   0.000  0.00  0.00    -0.493 OA
ATOM      7  C   UNL     1       5.326  -7.276   0.000  0.00  0.00    +0.277 C 
ENDBRANCH   5   6
TORSDOF 2