REMARK  Name = 327444
REMARK  3 active torsions:
REMARK  status: ('A' for Active; 'I' for Inactive)
REMARK    1  A    between atoms: C_9  and  N_10
REMARK    2  A    between atoms: C_9  and  N_18
REMARK    3  A    between atoms: C_12  and  S_13
REMARK                            x       y       z     vdW  Elec       q    Type
REMARK                         _______ _______ _______ _____ _____    ______ ____
ROOT
ATOM      1  C   UNL     1       0.750  -5.422   0.000  0.00  0.00    +0.029 C 
ATOM      2  C   UNL     1       0.750  -6.922   0.000  0.00  0.00    +0.009 C 
ATOM      3  C   UNL     1       2.049  -7.672   0.000  0.00  0.00    +0.039 C 
ATOM      4  C   UNL     1       3.348  -6.922   0.000  0.00  0.00    -0.002 A 
ATOM      5  C   UNL     1       4.775  -7.385   0.000  0.00  0.00    +0.064 A 
ATOM      8  S   UNL     1       5.656  -6.172   0.000  0.00  0.00    -0.003 S 
ATOM      9  N   UNL     1       4.775  -4.958   0.000  0.00  0.00    -0.292 N 
ATOM     19  C   UNL     1       3.348  -5.422   0.000  0.00  0.00    +0.051 A 
ATOM     20  C   UNL     1       2.049  -4.672   0.000  0.00  0.00    -0.000 C 
ENDROOT
BRANCH   9  10
ATOM     10  C   UNL     1       5.238  -3.531   0.000  0.00  0.00    +0.101 C 
ATOM     14  C   UNL     1       6.162  -2.349   0.000  0.00  0.00    +0.045 C 
ATOM     15  C   UNL     1       5.600  -0.959   0.000  0.00  0.00    +0.004 C 
ATOM     16  C   UNL     1       4.114  -0.750   0.000  0.00  0.00    +0.000 C 
ATOM     17  C   UNL     1       3.191  -1.932   0.000  0.00  0.00    +0.004 C 
ATOM     18  C   UNL     1       3.753  -3.323   0.000  0.00  0.00    +0.045 C 
BRANCH  10  11
ATOM     11  N   UNL     1       6.563  -4.236   0.000  0.00  0.00    -0.308 NA
ATOM     12  H   UNL     1       7.428  -3.695   0.000  0.00  0.00    +0.120 HD
ATOM     13  H   UNL     1       6.598  -5.255   0.000  0.00  0.00    +0.120 HD
ENDBRANCH  10  11
ENDBRANCH   9  10
BRANCH   5   6
ATOM      6  S   UNL     1       5.238  -8.812   0.000  0.00  0.00    -0.134 S 
ATOM      7  H   UNL     1       6.705  -9.124   0.000  0.00  0.00    +0.108 HD
ENDBRANCH   5   6
TORSDOF 3