REMARK  Name = 319994
REMARK  5 active torsions:
REMARK  status: ('A' for Active; 'I' for Inactive)
REMARK    1  A    between atoms: C_6  and  N_23
REMARK    2  A    between atoms: C_9  and  N_24
REMARK    3  A    between atoms: C_12  and  N_25
REMARK    4  A    between atoms: C_14  and  C_26
REMARK    5  A    between atoms: C_17  and  N_27
REMARK                            x       y       z     vdW  Elec       q    Type
REMARK                         _______ _______ _______ _____ _____    ______ ____
ROOT
ATOM     10  C   UNL     1       1.976   7.520   0.000  0.00  0.00    +0.037 A 
ATOM     11  C   UNL     1       3.475   7.520   0.000  0.00  0.00    +0.024 A 
ATOM     12  C   UNL     1       4.226   8.819   0.000  0.00  0.00    +0.007 A 
ATOM     13  C   UNL     1       3.475  10.118   0.000  0.00  0.00    -0.029 A 
ATOM     14  C   UNL     1       4.226  11.417   0.000  0.00  0.00    +0.045 C 
ATOM     15  C   UNL     1       1.976  10.118   0.000  0.00  0.00    +0.039 A 
ATOM     28  C   UNL     1       1.226   8.819   0.000  0.00  0.00    +0.047 A 
ENDROOT
BRANCH  10   8
ATOM      5  N   UNL     1      -1.025   4.922   0.000  0.00  0.00    -0.268 N 
ATOM      6  H   UNL     1      -0.532   4.069   0.000  0.00  0.00    +0.156 HD
ATOM      7  C   UNL     1      -0.275   6.221   0.000  0.00  0.00    +0.308 C 
ATOM      8  N   UNL     1       1.226   6.221   0.000  0.00  0.00    -0.269 N 
ATOM      9  H   UNL     1       1.718   5.368   0.000  0.00  0.00    +0.156 HD
ATOM     29  O   UNL     1      -1.025   7.520   0.000  0.00  0.00    -0.252 OA
BRANCH   5   4
ATOM      1  C   UNL     1      -5.524   4.922   0.000  0.00  0.00    +0.111 A 
ATOM      2  N   UNL     1      -4.774   3.623   0.000  0.00  0.00    -0.261 NA
ATOM      3  C   UNL     1      -3.275   3.623   0.000  0.00  0.00    +0.134 A 
ATOM      4  C   UNL     1      -2.525   4.922   0.000  0.00  0.00    +0.053 A 
ATOM     30  C   UNL     1      -3.275   6.221   0.000  0.00  0.00    +0.026 A 
ATOM     31  C   UNL     1      -4.774   6.221   0.000  0.00  0.00    +0.021 A 
ENDBRANCH   5   4
ENDBRANCH  10   8
BRANCH  15  16
ATOM     16  N   UNL     1       1.226  11.417   0.000  0.00  0.00    -0.269 N 
ATOM     17  H   UNL     1       0.241  11.417   0.000  0.00  0.00    +0.156 HD
ATOM     18  C   UNL     1       1.976  12.716   0.000  0.00  0.00    +0.308 C 
ATOM     19  N   UNL     1       3.475  12.716   0.000  0.00  0.00    -0.268 N 
ATOM     20  H   UNL     1       3.968  11.863   0.000  0.00  0.00    +0.156 HD
ATOM     27  O   UNL     1       1.226  14.015   0.000  0.00  0.00    -0.252 OA
BRANCH  19  21
ATOM     21  C   UNL     1       4.226  14.015   0.000  0.00  0.00    +0.053 A 
ATOM     22  C   UNL     1       5.726  14.015   0.000  0.00  0.00    +0.134 A 
ATOM     23  N   UNL     1       6.476  15.314   0.000  0.00  0.00    -0.261 NA
ATOM     24  C   UNL     1       5.726  16.613   0.000  0.00  0.00    +0.111 A 
ATOM     25  C   UNL     1       4.226  16.613   0.000  0.00  0.00    +0.021 A 
ATOM     26  C   UNL     1       3.475  15.314   0.000  0.00  0.00    +0.026 A 
ENDBRANCH  19  21
ENDBRANCH  15  16
TORSDOF 4