REMARK  Name = 234764
REMARK  4 active torsions:
REMARK  status: ('A' for Active; 'I' for Inactive)
REMARK    1  A    between atoms: O_1  and  C_4
REMARK    2  A    between atoms: O_1  and  C_10
REMARK    3  A    between atoms: O_2  and  C_5
REMARK    4  A    between atoms: O_2  and  C_12
REMARK                            x       y       z     vdW  Elec       q    Type
REMARK                         _______ _______ _______ _____ _____    ______ ____
ROOT
ATOM      7  C   UNL     1      -7.245  -1.500   0.000  0.00  0.00    +0.137 A 
ATOM      8  C   UNL     1      -7.245  -3.000   0.000  0.00  0.00    +0.046 A 
ATOM      9  C   UNL     1      -5.946  -3.750   0.000  0.00  0.00    +0.007 A 
ATOM     10  C   UNL     1      -4.647  -3.000   0.000  0.00  0.00    +0.046 A 
ATOM     11  C   UNL     1      -4.647  -1.500   0.000  0.00  0.00    +0.137 A 
ATOM     18  C   UNL     1      -5.946  -0.750   0.000  0.00  0.00    +0.092 A 
ENDROOT
BRANCH   7   1
ATOM      1  O   UNL     1      -8.544  -0.750   0.000  0.00  0.00    -0.412 OA
BRANCH   1   2
ATOM      2  C   UNL     1      -9.843  -1.500   0.000  0.00  0.00    +0.403 C 
ATOM      3  O   UNL     1     -11.142  -0.750   0.000  0.00  0.00    -0.226 OA
ATOM      4  N   UNL     1      -9.843  -3.000   0.000  0.00  0.00    -0.295 N 
ATOM      5  H   UNL     1      -8.991  -3.492   0.000  0.00  0.00    +0.148 HD
ATOM      6  H   UNL     1     -10.696  -3.492   0.000  0.00  0.00    +0.148 HD
ENDBRANCH   1   2
ENDBRANCH   7   1
BRANCH  11  12
ATOM     12  O   UNL     1      -3.348  -0.750   0.000  0.00  0.00    -0.412 OA
BRANCH  12  13
ATOM     13  C   UNL     1      -2.049  -1.500   0.000  0.00  0.00    +0.403 C 
ATOM     14  N   UNL     1      -2.049  -3.000   0.000  0.00  0.00    -0.295 N 
ATOM     15  H   UNL     1      -1.196  -3.492   0.000  0.00  0.00    +0.148 HD
ATOM     16  H   UNL     1      -2.902  -3.492   0.000  0.00  0.00    +0.148 HD
ATOM     17  O   UNL     1      -0.750  -0.750   0.000  0.00  0.00    -0.226 OA
ENDBRANCH  12  13
ENDBRANCH  11  12
TORSDOF 4