REMARK  11 active torsions:
REMARK  status: ('A' for Active; 'I' for Inactive)
REMARK    1  A    between atoms: O1_3860  and  C16_3877 
REMARK    2  A    between atoms: C2_3862  and  C3_3863 
REMARK    3  A    between atoms: C12_3873  and  C13_3874 
REMARK    4  A    between atoms: C13_3874  and  O_3891 
REMARK    5  A    between atoms: C14_3875  and  O_3891 
REMARK    6  A    between atoms: O3_3878  and  C24_3888 
REMARK    7  A    between atoms: C18_3880  and  C19_3882 
REMARK    8  A    between atoms: N1_3881  and  C21_3885 
REMARK       I    between atoms: N1_3881  and  C22_3883 
REMARK    9  A    between atoms: C19_3882  and  N_3887 
REMARK   10  A    between atoms: C21_3885  and  C20_3886 
REMARK   11  A    between atoms: C20_3886  and  N_3887 
ROOT
HETATM    1  O1  8J8 B 201      -0.442   9.552 -24.126  1.00 46.03    -0.328 OA
HETATM    2  C17 8J8 B 201      -0.824   8.294 -23.588  1.00 46.93     0.181 C 
ENDROOT
BRANCH   1   3
HETATM    3  C16 8J8 B 201      -1.315  10.596 -23.980  1.00 49.71     0.096 A 
HETATM    4  C18 8J8 B 201      -0.898  11.798 -24.574  1.00 59.36     0.058 A 
HETATM    5  C24 8J8 B 201      -1.725  12.914 -24.406  1.00 62.47     0.096 A 
HETATM    6  C26 8J8 B 201      -2.900  12.852 -23.684  1.00 56.68     0.048 A 
HETATM    7  C14 8J8 B 201      -3.284  11.648 -23.121  1.00 43.76     0.098 A 
HETATM    8  C15 8J8 B 201      -2.502  10.510 -23.268  1.00 36.68     0.048 A 
BRANCH   4   9
HETATM    9  C19 8J8 B 201       0.403  11.972 -25.331  1.00 58.17     0.321 C 
BRANCH   9  10
HETATM   10  N   8J8 B 201       0.655  11.212 -26.555  1.00 58.01     0.346 N 
BRANCH  10  11
HETATM   11  C20 8J8 B 201      -0.155  11.650 -27.694  1.00 66.19     0.317 C 
BRANCH  11  12
HETATM   12  C21 8J8 B 201      -0.158  10.592 -28.779  1.00 76.21     0.167 C 
BRANCH  12  13
HETATM   13  N1  8J8 B 201       0.642   9.435 -28.393  1.00 91.95    -0.236 NA
HETATM   14  C22 8J8 B 201       0.225   8.522 -27.510  1.00 92.85     0.252 C 
HETATM   15  O2  8J8 B 201      -0.932   8.504 -27.095  1.00 90.45    -0.271 OA
HETATM   16  C23 8J8 B 201       1.261   7.555 -27.018  1.00 89.80     0.100 C 
ENDBRANCH  12  13
ENDBRANCH  11  12
ENDBRANCH  10  11
ENDBRANCH   9  10
ENDBRANCH   4   9
BRANCH   5  17
HETATM   17  O3  8J8 B 201      -1.274  14.056 -25.003  1.00 57.66    -0.328 OA
HETATM   18  C25 8J8 B 201      -2.116  15.199 -24.950  1.00 54.53     0.181 C 
ENDBRANCH   5  17
BRANCH   7  19
HETATM   19  O   8J8 B 201      -4.537  11.806 -22.574  1.00 49.69    -0.326 OA
BRANCH  19  20
HETATM   20  C13 8J8 B 201      -5.237  10.609 -22.248  1.00 42.85     0.175 C 
BRANCH  20  21
HETATM   21  C12 8J8 B 201      -6.540  10.669 -21.487  1.00 27.41     0.004 A 
HETATM   22  C1  8J8 B 201      -7.755  11.142 -22.004  1.00 25.58    -0.023 A 
HETATM   23  C2  8J8 B 201      -8.959  10.755 -21.345  1.00 21.71    -0.004 A 
HETATM   24  C   8J8 B 201      -7.771  12.126 -23.146  1.00 30.45     0.031 C 
HETATM   25  C9  8J8 B 201      -8.899  10.016 -20.169  1.00 23.42    -0.000 A 
HETATM   26  C10 8J8 B 201      -7.684   9.632 -19.645  1.00 21.34    -0.000 A 
HETATM   27  C11 8J8 B 201      -6.516   9.956 -20.297  1.00 21.00    -0.002 A 
BRANCH  23  28
HETATM   28  C3  8J8 B 201     -10.337  11.057 -21.834  1.00 24.91    -0.000 A 
HETATM   29  C8  8J8 B 201     -10.788  10.584 -23.066  1.00 23.22     0.000 A 
HETATM   30  C7  8J8 B 201     -12.090  10.817 -23.481  1.00 26.36     0.000 A 
HETATM   31  C6  8J8 B 201     -12.962  11.532 -22.679  1.00 31.44     0.000 A 
HETATM   32  C5  8J8 B 201     -12.535  12.002 -21.455  1.00 25.66     0.000 A 
HETATM   33  C4  8J8 B 201     -11.236  11.766 -21.032  1.00 27.60     0.000 A 
ENDBRANCH  23  28
ENDBRANCH  20  21
ENDBRANCH  19  20
ENDBRANCH   7  19
ENDBRANCH   1   3
TORSDOF 11
