REMARK  12 active torsions:
REMARK  status: ('A' for Active; 'I' for Inactive)
REMARK    1  A    between atoms: C10_3947  and  C9_3948 
REMARK    2  A    between atoms: C9_3948  and  O3_3949 
REMARK    3  A    between atoms: O3_3949  and  C8_3950 
REMARK    4  A    between atoms: C4_3951  and  C3_3952 
REMARK    5  A    between atoms: C3_3952  and  N_3953 
REMARK    6  A    between atoms: N_3953  and  C1_3954 
REMARK    7  A    between atoms: C1_3954  and  C2_3955 
REMARK    8  A    between atoms: C1_3954  and  C_3958 
REMARK    9  A    between atoms: C18_3961  and  O4_3965 
REMARK   10  A    between atoms: O4_3965  and  C19_3966 
REMARK   11  A    between atoms: C19_3966  and  C20_3967 
REMARK   12  A    between atoms: C23_3971  and  C24_3974 
ROOT
HETATM    1  N1  8YZ A 201      -2.897  17.760 190.133  1.00 89.56    -0.191 NA
HETATM    2  C15 8YZ A 201      -1.750  17.497 190.196  1.00 79.59     0.101 C 
HETATM    3  C14 8YZ A 201      -0.498  17.239 190.443  1.00 60.95     0.068 A 
HETATM    4  C13 8YZ A 201       0.199  17.968 191.406  1.00 60.48     0.010 A 
HETATM    5  C12 8YZ A 201       1.526  17.631 191.695  1.00 54.37     0.000 A 
HETATM    6  C11 8YZ A 201       2.169  16.625 191.026  1.00 49.07    -0.002 A 
HETATM    7  C16 8YZ A 201       0.147  16.173 189.794  1.00 52.82     0.008 A 
HETATM    8  C10 8YZ A 201       1.499  15.901 190.075  1.00 48.03     0.009 A 
ENDROOT
BRANCH   8   9
HETATM    9  C9  8YZ A 201       2.286  14.805 189.441  1.00 42.19     0.175 C 
BRANCH   9  10
HETATM   10  O3  8YZ A 201       1.594  13.612 189.726  1.00 40.69    -0.326 OA
BRANCH  10  11
HETATM   11  C8  8YZ A 201       1.928  12.447 189.113  1.00 39.05     0.094 A 
HETATM   12  C4  8YZ A 201       0.982  11.314 189.294  1.00 41.49     0.036 A 
HETATM   13  C5  8YZ A 201       1.215  10.077 188.738  1.00 41.79    -0.003 A 
HETATM   14  C6  8YZ A 201       2.329   9.881 187.923  1.00 47.77     0.000 A 
HETATM   15  C7  8YZ A 201       2.527   8.502 187.297  1.00 47.10     0.033 C 
HETATM   16  C18 8YZ A 201       3.302  11.027 187.678  1.00 38.62     0.092 A 
HETATM   17  C17 8YZ A 201       3.080  12.288 188.293  1.00 41.74     0.048 A 
BRANCH  12  18
HETATM   18  C3  8YZ A 201      -0.196  11.527 190.169  1.00 44.49     0.319 C 
BRANCH  18  19
HETATM   19  N   8YZ A 201       0.378  11.341 191.522  1.00 48.31     0.356 N 
BRANCH  19  20
HETATM   20  C1  8YZ A 201      -0.730  11.217 192.520  1.00 52.46     0.375 C 
BRANCH  20  21
HETATM   21  C2  8YZ A 201      -1.701  10.044 192.263  1.00 53.19     0.223 C 
HETATM   22  O2  8YZ A 201      -1.421   9.004 191.637  1.00 48.37    -0.646 OA
HETATM   23  O1  8YZ A 201      -2.927  10.157 192.756  1.00 57.44    -0.646 OA
ENDBRANCH  20  21
BRANCH  20  24
HETATM   24  C   8YZ A 201      -0.019  11.129 193.870  1.00 43.55     0.230 C 
HETATM   25  O   8YZ A 201       0.539  12.399 194.237  1.00 38.18    -0.218 OA
ENDBRANCH  20  24
ENDBRANCH  19  20
ENDBRANCH  18  19
ENDBRANCH  12  18
BRANCH  16  26
HETATM   26  O4  8YZ A 201       4.375  10.862 186.889  1.00 35.19    -0.326 OA
BRANCH  26  27
HETATM   27  C19 8YZ A 201       5.484  11.691 187.409  1.00 39.36     0.175 C 
BRANCH  27  28
HETATM   28  C20 8YZ A 201       6.623  11.147 186.722  1.00 31.61     0.004 A 
HETATM   29  C34 8YZ A 201       6.436  10.358 185.648  1.00 32.11    -0.002 A 
HETATM   30  C33 8YZ A 201       7.476   9.804 185.006  1.00 32.12    -0.000 A 
HETATM   31  C32 8YZ A 201       8.757  10.093 185.426  1.00 32.21    -0.000 A 
HETATM   32  C23 8YZ A 201       9.024  10.896 186.485  1.00 32.03    -0.004 A 
HETATM   33  C21 8YZ A 201       7.943  11.477 187.169  1.00 36.52    -0.023 A 
HETATM   34  C22 8YZ A 201       8.193  12.361 188.313  1.00 40.36     0.031 C 
BRANCH  32  35
HETATM   35  C24 8YZ A 201      10.473  11.147 186.855  1.00 35.20     0.002 A 
HETATM   36  C31 8YZ A 201      11.051  10.707 188.057  1.00 34.62     0.002 A 
HETATM   37  C30 8YZ A 201      12.445  10.942 188.289  1.00 30.31     0.026 A 
HETATM   38  C27 8YZ A 201      13.179  11.626 187.327  1.00 33.74     0.116 A 
HETATM   39  O5  8YZ A 201      14.532  11.892 187.424  1.00 42.62    -0.326 OA
HETATM   40  C26 8YZ A 201      12.571  12.053 186.069  1.00 43.35     0.116 A 
HETATM   41  C28 8YZ A 201      15.414  12.192 186.308  1.00 39.11     0.181 C 
HETATM   42  C29 8YZ A 201      14.734  13.171 185.425  1.00 45.01     0.181 C 
HETATM   43  O6  8YZ A 201      13.380  12.695 185.139  1.00 45.65    -0.326 OA
HETATM   44  C25 8YZ A 201      11.201  11.848 185.871  1.00 35.55     0.026 A 
ENDBRANCH  32  35
ENDBRANCH  27  28
ENDBRANCH  26  27
ENDBRANCH  16  26
ENDBRANCH  10  11
ENDBRANCH   9  10
ENDBRANCH   8   9
TORSDOF 12
