REMARK  10 active torsions:
REMARK  status: ('A' for Active; 'I' for Inactive)
REMARK    1  A    between atoms: O1_3894  and  C5_3904 
REMARK       I    between atoms: C11_3896  and  N2_3898 
REMARK    2  A    between atoms: N2_3898  and  C10_3899 
REMARK    3  A    between atoms: C10_3899  and  C9_3900 
REMARK    4  A    between atoms: C9_3900  and  N1_3901 
REMARK    5  A    between atoms: N1_3901  and  C8_3902 
REMARK    6  A    between atoms: C8_3902  and  C7_3903 
REMARK    7  A    between atoms: C4_3909  and  O_3910 
REMARK    8  A    between atoms: O_3910  and  C3_3911 
REMARK    9  A    between atoms: C3_3911  and  C2_3912 
REMARK   10  A    between atoms: C18_3916  and  C19_3919 
ROOT
HETATM    1  O1  6GX B 201       8.749 -16.894 179.513  1.00 51.41    -0.312 OA
HETATM    2  C6  6GX B 201       9.588 -15.874 179.972  1.00 46.96     0.183 C 
ENDROOT
BRANCH   1   3
HETATM    3  C5  6GX B 201       9.433 -18.031 179.063  1.00 52.45     0.178 A 
HETATM    4  C7  6GX B 201       8.705 -19.155 178.691  1.00 56.62     0.055 A 
HETATM    5  C13 6GX B 201       9.360 -20.252 178.241  1.00 58.55     0.005 A 
HETATM    6  C14 6GX B 201      10.715 -20.251 178.167  1.00 54.53     0.044 A 
HETATM    7  C4  6GX B 201      11.439 -19.132 178.555  1.00 43.50     0.180 A 
HETATM    8  N   6GX B 201      10.787 -18.031 178.991  1.00 44.47    -0.199 NA
BRANCH   4   9
HETATM    9  C8  6GX B 201       7.177 -19.135 178.759  1.00 57.17     0.320 C 
BRANCH   9  10
HETATM   10  N1  6GX B 201       6.697 -19.869 179.907  1.00 62.45     0.346 N 
BRANCH  10  11
HETATM   11  C9  6GX B 201       5.501 -19.202 180.379  1.00 74.18     0.317 C 
BRANCH  11  12
HETATM   12  C10 6GX B 201       5.189 -19.848 181.719  1.00 84.96     0.167 C 
BRANCH  12  13
HETATM   13  N2  6GX B 201       3.961 -20.632 181.739  1.00 92.46    -0.236 NA
HETATM   14  C11 6GX B 201       3.636 -21.792 180.911  1.00 94.82     0.252 C 
HETATM   15  O2  6GX B 201       2.587 -22.310 181.088  1.00100.51    -0.271 OA
HETATM   16  C12 6GX B 201       4.551 -22.372 179.828  1.00 88.83     0.100 C 
ENDBRANCH  12  13
ENDBRANCH  11  12
ENDBRANCH  10  11
ENDBRANCH   9  10
ENDBRANCH   4   9
BRANCH   7  17
HETATM   17  O   6GX B 201      12.840 -19.161 178.473  1.00 46.29    -0.310 OA
BRANCH  17  18
HETATM   18  C3  6GX B 201      13.557 -18.371 179.385  1.00 48.00     0.177 C 
BRANCH  18  19
HETATM   19  C2  6GX B 201      15.027 -18.812 179.437  1.00 43.66     0.004 A 
HETATM   20  C15 6GX B 201      15.600 -19.449 178.345  1.00 41.30    -0.002 A 
HETATM   21  C16 6GX B 201      16.929 -19.839 178.393  1.00 45.38    -0.000 A 
HETATM   22  C17 6GX B 201      17.679 -19.598 179.536  1.00 43.03    -0.000 A 
HETATM   23  C18 6GX B 201      17.121 -18.967 180.643  1.00 32.22    -0.004 A 
HETATM   24  C1  6GX B 201      15.787 -18.576 180.581  1.00 36.04    -0.023 A 
HETATM   25  C   6GX B 201      15.122 -17.871 181.747  1.00 37.05     0.031 C 
BRANCH  23  26
HETATM   26  C19 6GX B 201      18.045 -18.744 181.852  1.00 26.32    -0.000 A 
HETATM   27  C24 6GX B 201      17.786 -19.289 183.107  1.00 30.22     0.000 A 
HETATM   28  C23 6GX B 201      18.676 -19.073 184.149  1.00 28.46     0.000 A 
HETATM   29  C22 6GX B 201      19.826 -18.330 183.942  1.00 30.58     0.000 A 
HETATM   30  C21 6GX B 201      20.090 -17.797 182.692  1.00 33.69     0.000 A 
HETATM   31  C20 6GX B 201      19.205 -18.006 181.652  1.00 29.67     0.000 A 
ENDBRANCH  23  26
ENDBRANCH  18  19
ENDBRANCH  17  18
ENDBRANCH   7  17
ENDBRANCH   1   3
TORSDOF 10
