REMARK  Name = NSC 785160
REMARK  3 active torsions:
REMARK  status: ('A' for Active; 'I' for Inactive)
REMARK    1  A    between atoms: O_1  and  C_2
REMARK    2  A    between atoms: O_1  and  C_24
REMARK    3  A    between atoms: C_3  and  O_4
REMARK                            x       y       z     vdW  Elec       q    Type
REMARK                         _______ _______ _______ _____ _____    ______ ____
ROOT
ATOM      2  C   UNL     1       4.719   1.141   0.000  0.00  0.00    +0.169 A 
ATOM      3  C   UNL     1       3.420   0.391   0.000  0.00  0.00    +0.159 A 
ATOM      6  C   UNL     1       3.420  -1.109   0.000  0.00  0.00    +0.049 A 
ATOM      7  C   UNL     1       4.719  -1.859   0.000  0.00  0.00    +0.008 A 
ATOM      8  C   UNL     1       6.018  -1.109   0.000  0.00  0.00    -0.034 A 
ATOM      9  C   UNL     1       7.317  -1.859   0.000  0.00  0.00    +0.059 C 
ATOM     10  C   UNL     1       8.616  -1.109   0.000  0.00  0.00    +0.089 C 
ATOM     11  N   UNL     1       9.915  -1.859   0.000  0.00  0.00    -0.309 NA
ATOM     12  H   UNL     1       9.916  -2.879   0.000  0.00  0.00    +0.123 HD
ATOM     13  C   UNL     1      11.214  -1.109   0.000  0.00  0.00    +0.086 C 
ATOM     14  C   UNL     1      11.214   0.391   0.000  0.00  0.00    +0.050 C 
ATOM     15  C   UNL     1       9.915   1.141   0.000  0.00  0.00    -0.037 A 
ATOM     16  C   UNL     1       9.915   2.641   0.000  0.00  0.00    +0.053 A 
ATOM     17  C   UNL     1       8.616   3.391   0.000  0.00  0.00    +0.167 A 
ATOM     18  O   UNL     1       8.305   4.859   0.000  0.00  0.00    -0.453 OA
ATOM     19  C   UNL     1       6.813   5.015   0.000  0.00  0.00    +0.466 C 
ATOM     20  O   UNL     1       6.203   3.645   0.000  0.00  0.00    -0.452 OA
ATOM     21  C   UNL     1       7.317   2.641   0.000  0.00  0.00    +0.174 A 
ATOM     22  C   UNL     1       7.317   1.141   0.000  0.00  0.00    +0.036 A 
ATOM     23  C   UNL     1       8.616   0.391   0.000  0.00  0.00    -0.015 A 
ATOM     24  C   UNL     1       6.018   0.391   0.000  0.00  0.00    +0.035 A 
ENDROOT
BRANCH   2   1
ATOM      1  O   UNL     1       4.719   2.641   0.000  0.00  0.00    -0.491 OA
ATOM     25  C   UNL     1       3.420   3.391   0.000  0.00  0.00    +0.277 C 
ENDBRANCH   2   1
BRANCH   3   4
ATOM      4  O   UNL     1       2.121   1.141   0.000  0.00  0.00    -0.503 OA
ATOM      5  H   UNL     1       2.121   2.078   0.000  0.00  0.00    +0.292 HD
ENDBRANCH   3   4
TORSDOF 2