REMARK  Name = NSC 7652
REMARK  5 active torsions:
REMARK  status: ('A' for Active; 'I' for Inactive)
REMARK    1  A    between atoms: N9_7  and  C1*_8
REMARK    2  A    between atoms: C2*_9  and  O2*_10
REMARK    3  A    between atoms: C3*_11  and  O3*_12
REMARK    4  A    between atoms: C4*_13  and  C5*_14
REMARK    5  A    between atoms: C5*_14  and  O5*_15
REMARK                            x       y       z     vdW  Elec       q    Type
REMARK                         _______ _______ _______ _____ _____    ______ ____
ROOT
ATOM      1  C6    A A   1       0.243   4.225   0.000  0.00  0.00    +0.147 A 
ATOM      2  N6    A A   1       1.154   5.417   0.000  0.00  0.00    -0.341 N 
ATOM      3  H61   A A   1       0.776   6.326   0.000  0.00  0.00    +0.144 HD
ATOM      4  H62   A A   1       2.131   5.290   0.000  0.00  0.00    +0.144 HD
ATOM      5  C5    A A   1       0.820   2.840   0.000  0.00  0.00    +0.147 A 
ATOM      6  C4    A A   1      -0.091   1.649   0.000  0.00  0.00    +0.167 A 
ATOM      7  N3    A A   1      -1.579   1.842   0.000  0.00  0.00    -0.216 NA
ATOM      8  C2    A A   1      -2.155   3.227   0.000  0.00  0.00    +0.225 A 
ATOM      9  N9    A A   1       0.760   0.414   0.000  0.00  0.00    -0.286 N 
ATOM     22  C8    A A   1       2.198   0.842   0.000  0.00  0.00    +0.203 A 
ATOM     23  N7    A A   1       2.234   2.342   0.000  0.00  0.00    -0.231 NA
ATOM     24  N1    A A   1      -1.244   4.418   0.000  0.00  0.00    -0.219 NA
ENDROOT
BRANCH   9  10
ATOM     10  C1*   A A   1       0.262  -1.001   0.000  0.00  0.00    +0.253 C 
ATOM     11  C2*   A A   1       1.114  -2.236   0.000  0.00  0.00    +0.195 C 
ATOM     14  C3*   A A   1       0.203  -3.427   0.000  0.00  0.00    +0.178 C 
ATOM     17  C4*   A A   1      -1.212  -2.929   0.000  0.00  0.00    +0.177 C 
ATOM     21  O4*   A A   1      -1.176  -1.429   0.000  0.00  0.00    -0.346 OA
BRANCH  11  12
ATOM     12  O2*   A A   1       2.613  -2.272   0.000  0.00  0.00    -0.385 OA
ATOM     13  H2*   A A   1       3.078  -3.124   0.000  0.00  0.00    +0.210 HD
ENDBRANCH  11  12
BRANCH  14  15
ATOM     15  O3*   A A   1       0.631  -4.865   0.000  0.00  0.00    -0.386 OA
ATOM     16  H3*   A A   1      -0.036  -5.569   0.000  0.00  0.00    +0.210 HD
ENDBRANCH  14  15
BRANCH  17  18
ATOM     18  C5*   A A   1      -2.447  -3.781   0.000  0.00  0.00    +0.190 C 
BRANCH  18  19
ATOM     19  O5*   A A   1      -2.327  -5.276   0.000  0.00  0.00    -0.392 OA
ATOM     20  H5*   A A   1      -3.125  -5.827   0.000  0.00  0.00    +0.210 HD
ENDBRANCH  18  19
ENDBRANCH  17  18
ENDBRANCH   9  10
TORSDOF 5