REMARK  Name = NSC 785166
REMARK  4 active torsions:
REMARK  status: ('A' for Active; 'I' for Inactive)
REMARK    1  A    between atoms: C_1  and  O_2
REMARK    2  A    between atoms: C_3  and  O_21
REMARK    3  A    between atoms: N_8  and  C_9
REMARK    4  A    between atoms: O_21  and  C_22
REMARK                            x       y       z     vdW  Elec       q    Type
REMARK                         _______ _______ _______ _____ _____    ______ ____
ROOT
ATOM      1  C   UNL     1       1.821 -10.347   0.000  0.00  0.00    +0.163 A 
ATOM      4  C   UNL     1       1.821 -11.847   0.000  0.00  0.00    +0.162 A 
ATOM      5  C   UNL     1       0.521 -12.597   0.000  0.00  0.00    +0.053 A 
ATOM      6  C   UNL     1      -0.777 -11.847   0.000  0.00  0.00    -0.038 A 
ATOM      7  C   UNL     1      -2.077 -12.597   0.000  0.00  0.00    +0.051 C 
ATOM      8  C   UNL     1      -3.376 -11.847   0.000  0.00  0.00    +0.089 C 
ATOM      9  N   UNL     1      -3.376 -10.347   0.000  0.00  0.00    -0.298 NA
ATOM     10  C   UNL     1      -4.675  -9.597   0.000  0.00  0.00    +0.105 C 
ATOM     11  C   UNL     1      -2.077  -9.597   0.000  0.00  0.00    +0.089 C 
ATOM     12  C   UNL     1      -1.688  -8.148   0.000  0.00  0.00    +0.043 C 
ATOM     13  C   UNL     1      -0.188  -8.148   0.000  0.00  0.00    +0.038 C 
ATOM     14  C   UNL     1      -0.894  -6.824   0.000  0.00  0.00    -0.008 C 
ATOM     15  C   UNL     1      -0.100  -5.551   0.000  0.00  0.00    +0.048 C 
ATOM     16  C   UNL     1       1.399  -5.602   0.000  0.00  0.00    +0.178 C 
ATOM     17  O   UNL     1       2.193  -4.330   0.000  0.00  0.00    -0.288 OA
ATOM     18  C   UNL     1       2.105  -6.926   0.000  0.00  0.00    +0.048 C 
ATOM     19  C   UNL     1       1.311  -8.199   0.000  0.00  0.00    -0.008 C 
ATOM     20  C   UNL     1      -0.777 -10.347   0.000  0.00  0.00    -0.019 A 
ATOM     23  C   UNL     1       0.521  -9.597   0.000  0.00  0.00    +0.016 A 
ENDROOT
BRANCH   1   2
ATOM      2  O   UNL     1       3.120  -9.597   0.000  0.00  0.00    -0.503 OA
ATOM      3  H   UNL     1       3.931 -10.065   0.000  0.00  0.00    +0.292 HD
ENDBRANCH   1   2
BRANCH   4  21
ATOM     21  O   UNL     1       3.120 -12.597   0.000  0.00  0.00    -0.491 OA
ATOM     22  C   UNL     1       4.419 -11.847   0.000  0.00  0.00    +0.277 C 
ENDBRANCH   4  21
TORSDOF 2