REMARK  Name = NSC 785146#1
REMARK  9 active torsions:
REMARK  status: ('A' for Active; 'I' for Inactive)
REMARK    1  A    between atoms: C_1  and  O_23
REMARK    2  A    between atoms: N_7  and  C_8
REMARK    3  A    between atoms: C_13  and  O_14
REMARK    4  A    between atoms: O_14  and  C_15
REMARK    5  A    between atoms: C_16  and  O_17
REMARK    6  A    between atoms: O_17  and  C_18
REMARK    7  A    between atoms: O_23  and  C_24
REMARK    8  A    between atoms: C_25  and  O_26
REMARK    9  A    between atoms: O_26  and  C_27
REMARK                            x       y       z     vdW  Elec       q    Type
REMARK                         _______ _______ _______ _____ _____    ______ ____
ROOT
ATOM      1  C   UNL     1     -15.706  -5.980   0.000  0.00  0.00    +0.162 A 
ATOM      2  C   UNL     1     -15.708  -7.480   0.000  0.00  0.00    +0.050 A 
ATOM      3  C   UNL     1     -14.410  -8.231   0.000  0.00  0.00    +0.008 A 
ATOM      4  C   UNL     1     -13.110  -7.483   0.000  0.00  0.00    -0.034 A 
ATOM      5  C   UNL     1     -11.812  -8.235   0.000  0.00  0.00    +0.059 C 
ATOM      6  C   UNL     1     -10.512  -7.486   0.000  0.00  0.00    +0.092 C 
ATOM      7  N   UNL     1      -9.214  -8.238   0.000  0.00  0.00    -0.298 NA
ATOM      8  C   UNL     1      -9.216  -9.738   0.000  0.00  0.00    +0.105 C 
ATOM      9  C   UNL     1      -7.914  -7.490   0.000  0.00  0.00    +0.089 C 
ATOM     10  C   UNL     1      -7.912  -5.990   0.000  0.00  0.00    +0.051 C 
ATOM     11  C   UNL     1      -9.210  -5.238   0.000  0.00  0.00    -0.037 A 
ATOM     12  C   UNL     1      -9.208  -3.738   0.000  0.00  0.00    +0.053 A 
ATOM     13  C   UNL     1     -10.506  -2.986   0.000  0.00  0.00    +0.162 A 
ATOM     16  C   UNL     1     -11.806  -3.735   0.000  0.00  0.00    +0.170 A 
ATOM     19  C   UNL     1     -11.808  -5.235   0.000  0.00  0.00    +0.036 A 
ATOM     20  C   UNL     1     -10.510  -5.986   0.000  0.00  0.00    -0.015 A 
ATOM     21  C   UNL     1     -13.108  -5.983   0.000  0.00  0.00    +0.035 A 
ATOM     24  C   UNL     1     -14.406  -5.231   0.000  0.00  0.00    +0.170 A 
ENDROOT
BRANCH  13  14
ATOM     14  O   UNL     1     -10.504  -1.486   0.000  0.00  0.00    -0.491 OA
ATOM     15  C   UNL     1      -9.204  -0.738   0.000  0.00  0.00    +0.277 C 
ENDBRANCH  13  14
BRANCH  16  17
ATOM     17  O   UNL     1     -13.104  -2.983   0.000  0.00  0.00    -0.491 OA
ATOM     18  C   UNL     1     -13.102  -1.483   0.000  0.00  0.00    +0.277 C 
ENDBRANCH  16  17
BRANCH   1  22
ATOM     22  O   UNL     1     -17.004  -5.228   0.000  0.00  0.00    -0.491 OA
ATOM     23  C   UNL     1     -18.304  -5.976   0.000  0.00  0.00    +0.277 C 
ENDBRANCH   1  22
BRANCH  24  25
ATOM     25  O   UNL     1     -14.404  -3.731   0.000  0.00  0.00    -0.491 OA
ATOM     26  C   UNL     1     -15.702  -2.980   0.000  0.00  0.00    +0.277 C 
ENDBRANCH  24  25
TORSDOF 4