REMARK  Name = NSC 75527
REMARK  13 active torsions:
REMARK  status: ('A' for Active; 'I' for Inactive)
REMARK    1  A    between atoms: C_1  and  O_2
REMARK    2  A    between atoms: O_2  and  C_3
REMARK    3  A    between atoms: C_5  and  O_6
REMARK    4  A    between atoms: O_6  and  C_7
REMARK    5  A    between atoms: C_9  and  O_10
REMARK    6  A    between atoms: O_10  and  C_11
REMARK    7  A    between atoms: C_12  and  C_13
REMARK    8  A    between atoms: C_13  and  C_14
REMARK    9  A    between atoms: C_15  and  C_16
REMARK   10  A    between atoms: C_19  and  O_20
REMARK   11  A    between atoms: O_20  and  C_21
REMARK   12  A    between atoms: C_22  and  O_23
REMARK   13  A    between atoms: O_23  and  C_24
REMARK                            x       y       z     vdW  Elec       q    Type
REMARK                         _______ _______ _______ _____ _____    ______ ____
ROOT
ATOM     13  C   UNL     1       0.924 -10.400   0.000  0.00  0.00    +0.193 C 
ATOM     26  O   UNL     1       2.223 -11.150   0.000  0.00  0.00    -0.287 OA
ENDROOT
BRANCH  13  12
ATOM      1  C   UNL     1      -1.674 -10.400   0.000  0.00  0.00    +0.138 A 
ATOM      4  C   UNL     1      -2.973 -11.150   0.000  0.00  0.00    +0.092 A 
ATOM      5  C   UNL     1      -2.973 -12.650   0.000  0.00  0.00    +0.127 A 
ATOM      8  C   UNL     1      -1.674 -13.400   0.000  0.00  0.00    +0.092 A 
ATOM      9  C   UNL     1      -0.375 -12.650   0.000  0.00  0.00    +0.138 A 
ATOM     12  C   UNL     1      -0.375 -11.150   0.000  0.00  0.00    +0.105 A 
BRANCH   1   2
ATOM      2  O   UNL     1      -1.674  -8.899   0.000  0.00  0.00    -0.494 OA
ATOM      3  C   UNL     1      -2.973  -8.149   0.000  0.00  0.00    +0.277 C 
ENDBRANCH   1   2
BRANCH   5   6
ATOM      6  O   UNL     1      -4.272 -13.400   0.000  0.00  0.00    -0.495 OA
ATOM      7  C   UNL     1      -5.571 -12.650   0.000  0.00  0.00    +0.277 C 
ENDBRANCH   5   6
BRANCH   9  10
ATOM     10  O   UNL     1       0.924 -13.400   0.000  0.00  0.00    -0.494 OA
ATOM     11  C   UNL     1       2.223 -12.650   0.000  0.00  0.00    +0.277 C 
ENDBRANCH   9  10
ENDBRANCH  13  12
BRANCH  13  14
ATOM     14  C   UNL     1       0.924  -8.899   0.000  0.00  0.00    +0.052 C 
ATOM     15  C   UNL     1       2.223  -8.149   0.000  0.00  0.00    +0.012 C 
BRANCH  15  16
ATOM     16  C   UNL     1       2.223  -6.649   0.000  0.00  0.00    -0.021 A 
ATOM     17  C   UNL     1       3.522  -5.899   0.000  0.00  0.00    +0.012 A 
ATOM     18  C   UNL     1       3.522  -4.399   0.000  0.00  0.00    +0.050 A 
ATOM     19  C   UNL     1       2.223  -3.650   0.000  0.00  0.00    +0.162 A 
ATOM     22  C   UNL     1       0.924  -4.399   0.000  0.00  0.00    +0.162 A 
ATOM     25  C   UNL     1       0.924  -5.899   0.000  0.00  0.00    +0.057 A 
BRANCH  19  20
ATOM     20  O   UNL     1       2.223  -2.150   0.000  0.00  0.00    -0.491 OA
ATOM     21  C   UNL     1       0.924  -1.400   0.000  0.00  0.00    +0.277 C 
ENDBRANCH  19  20
BRANCH  22  23
ATOM     23  O   UNL     1      -0.375  -3.650   0.000  0.00  0.00    -0.491 OA
ATOM     24  C   UNL     1      -0.375  -2.150   0.000  0.00  0.00    +0.277 C 
ENDBRANCH  22  23
ENDBRANCH  15  16
ENDBRANCH  13  14
TORSDOF 8