REMARK  Name = NSC 785167
REMARK  5 active torsions:
REMARK  status: ('A' for Active; 'I' for Inactive)
REMARK    1  A    between atoms: C_1  and  O_2
REMARK    2  A    between atoms: C_3  and  O_21
REMARK    3  A    between atoms: N_8  and  C_9
REMARK    4  A    between atoms: C_16  and  O_17
REMARK    5  A    between atoms: O_21  and  C_22
REMARK                            x       y       z     vdW  Elec       q    Type
REMARK                         _______ _______ _______ _____ _____    ______ ____
ROOT
ATOM      1  C   UNL     1       2.214   9.644   0.000  0.00  0.00    +0.167 A 
ATOM      4  C   UNL     1       3.513  10.394   0.000  0.00  0.00    +0.162 A 
ATOM      5  C   UNL     1       4.812   9.644   0.000  0.00  0.00    +0.053 A 
ATOM      6  C   UNL     1       4.812   8.144   0.000  0.00  0.00    -0.037 A 
ATOM      7  C   UNL     1       6.111   7.394   0.000  0.00  0.00    +0.051 C 
ATOM      8  C   UNL     1       6.111   5.894   0.000  0.00  0.00    +0.089 C 
ATOM      9  N   UNL     1       4.812   5.144   0.000  0.00  0.00    -0.298 NA
ATOM     10  C   UNL     1       4.812   3.644   0.000  0.00  0.00    +0.105 C 
ATOM     11  C   UNL     1       3.513   5.894   0.000  0.00  0.00    +0.092 C 
ATOM     12  C   UNL     1       2.214   5.144   0.000  0.00  0.00    +0.059 C 
ATOM     13  C   UNL     1       0.915   5.894   0.000  0.00  0.00    -0.038 A 
ATOM     14  C   UNL     1      -0.384   5.144   0.000  0.00  0.00    +0.008 A 
ATOM     15  C   UNL     1      -1.683   5.894   0.000  0.00  0.00    +0.046 A 
ATOM     16  C   UNL     1      -1.683   7.394   0.000  0.00  0.00    +0.117 A 
ATOM     19  C   UNL     1      -0.384   8.144   0.000  0.00  0.00    +0.054 A 
ATOM     20  C   UNL     1       0.915   7.394   0.000  0.00  0.00    -0.007 A 
ATOM     21  C   UNL     1       3.513   7.394   0.000  0.00  0.00    -0.015 A 
ATOM     24  C   UNL     1       2.214   8.144   0.000  0.00  0.00    +0.033 A 
ENDROOT
BRANCH   1   2
ATOM      2  O   UNL     1       0.915  10.394   0.000  0.00  0.00    -0.503 OA
ATOM      3  H   UNL     1       0.915  11.331   0.000  0.00  0.00    +0.292 HD
ENDBRANCH   1   2
BRANCH  16  17
ATOM     17  O   UNL     1      -2.982   8.144   0.000  0.00  0.00    -0.507 OA
ATOM     18  H   UNL     1      -2.982   9.081   0.000  0.00  0.00    +0.292 HD
ENDBRANCH  16  17
BRANCH   4  22
ATOM     22  O   UNL     1       3.513  11.894   0.000  0.00  0.00    -0.491 OA
ATOM     23  C   UNL     1       4.812  12.644   0.000  0.00  0.00    +0.277 C 
ENDBRANCH   4  22
TORSDOF 3