REMARK  Name = NSC 785143
REMARK  7 active torsions:
REMARK  status: ('A' for Active; 'I' for Inactive)
REMARK    1  A    between atoms: C_12  and  O_13
REMARK    2  A    between atoms: O_13  and  C_14
REMARK    3  A    between atoms: C_15  and  O_16
REMARK    4  A    between atoms: O_16  and  C_17
REMARK    5  A    between atoms: C_18  and  O_19
REMARK    6  A    between atoms: O_19  and  C_20
REMARK    7  A    between atoms: C_24  and  O_25
REMARK                            x       y       z     vdW  Elec       q    Type
REMARK                         _______ _______ _______ _____ _____    ______ ____
ROOT
ATOM      1  C   UNL     1      -6.780  -7.766   0.000  0.00  0.00    +0.046 A 
ATOM      2  C   UNL     1      -5.480  -7.017   0.000  0.00  0.00    +0.013 A 
ATOM      3  C   UNL     1      -4.182  -7.769   0.000  0.00  0.00    -0.003 A 
ATOM      4  C   UNL     1      -4.184  -9.269   0.000  0.00  0.00    +0.035 A 
ATOM      5  C   UNL     1      -2.886 -10.021   0.000  0.00  0.00    +0.212 C 
ATOM      6  O   UNL     1      -2.888 -11.521   0.000  0.00  0.00    -0.285 OA
ATOM      7  C   UNL     1      -1.586  -9.272   0.000  0.00  0.00    +0.119 A 
ATOM      8  N   UNL     1      -0.288 -10.024   0.000  0.00  0.00    -0.251 NA
ATOM      9  C   UNL     1       1.012  -9.276   0.000  0.00  0.00    +0.112 A 
ATOM     10  C   UNL     1       1.014  -7.776   0.000  0.00  0.00    +0.032 A 
ATOM     11  C   UNL     1      -0.284  -7.024   0.000  0.00  0.00    +0.032 A 
ATOM     12  C   UNL     1      -0.282  -5.524   0.000  0.00  0.00    +0.173 A 
ATOM     15  C   UNL     1      -1.580  -4.772   0.000  0.00  0.00    +0.205 A 
ATOM     18  C   UNL     1      -2.880  -5.521   0.000  0.00  0.00    +0.174 A 
ATOM     21  C   UNL     1      -1.584  -7.772   0.000  0.00  0.00    +0.026 A 
ATOM     22  C   UNL     1      -5.484 -10.017   0.000  0.00  0.00    +0.057 A 
ATOM     23  C   UNL     1      -2.882  -7.021   0.000  0.00  0.00    +0.038 A 
ATOM     24  C   UNL     1      -6.782  -9.265   0.000  0.00  0.00    +0.118 A 
ENDROOT
BRANCH  12  13
ATOM     13  O   UNL     1       1.018  -4.776   0.000  0.00  0.00    -0.491 OA
ATOM     14  C   UNL     1       2.316  -5.528   0.000  0.00  0.00    +0.277 C 
ENDBRANCH  12  13
BRANCH  15  16
ATOM     16  O   UNL     1      -1.578  -3.272   0.000  0.00  0.00    -0.488 OA
ATOM     17  C   UNL     1      -0.278  -2.524   0.000  0.00  0.00    +0.277 C 
ENDBRANCH  15  16
BRANCH  18  19
ATOM     19  O   UNL     1      -4.178  -4.769   0.000  0.00  0.00    -0.491 OA
ATOM     20  C   UNL     1      -4.176  -3.269   0.000  0.00  0.00    +0.277 C 
ENDBRANCH  18  19
BRANCH  24  25
ATOM     25  O   UNL     1      -8.082 -10.014   0.000  0.00  0.00    -0.507 OA
ATOM     26  H   UNL     1      -8.893  -9.544   0.000  0.00  0.00    +0.292 HD
ENDBRANCH  24  25
TORSDOF 4