REMARK  Name = NSC 785147#1
REMARK  4 active torsions:
REMARK  status: ('A' for Active; 'I' for Inactive)
REMARK    1  A    between atoms: C_1  and  O_2
REMARK    2  A    between atoms: N_8  and  C_9
REMARK    3  A    between atoms: C_23  and  O_24
REMARK    4  A    between atoms: O_24  and  C_25
REMARK                            x       y       z     vdW  Elec       q    Type
REMARK                         _______ _______ _______ _____ _____    ______ ____
ROOT
ATOM      1  C   UNL     1     -17.815   2.178   0.000  0.00  0.00    +0.159 A 
ATOM      4  C   UNL     1     -17.818   0.678   0.000  0.00  0.00    +0.049 A 
ATOM      5  C   UNL     1     -16.521  -0.075   0.000  0.00  0.00    +0.008 A 
ATOM      6  C   UNL     1     -15.220   0.672   0.000  0.00  0.00    -0.034 A 
ATOM      7  C   UNL     1     -13.923  -0.081   0.000  0.00  0.00    +0.059 C 
ATOM      8  C   UNL     1     -12.622   0.666   0.000  0.00  0.00    +0.092 C 
ATOM      9  N   UNL     1     -11.325  -0.087   0.000  0.00  0.00    -0.298 NA
ATOM     10  C   UNL     1     -11.329  -1.587   0.000  0.00  0.00    +0.105 C 
ATOM     11  C   UNL     1     -10.024   0.659   0.000  0.00  0.00    +0.089 C 
ATOM     12  C   UNL     1     -10.021   2.159   0.000  0.00  0.00    +0.051 C 
ATOM     13  C   UNL     1     -11.318   2.913   0.000  0.00  0.00    -0.037 A 
ATOM     14  C   UNL     1     -11.314   4.412   0.000  0.00  0.00    +0.053 A 
ATOM     15  C   UNL     1     -12.611   5.166   0.000  0.00  0.00    +0.167 A 
ATOM     16  O   UNL     1     -12.920   6.634   0.000  0.00  0.00    -0.453 OA
ATOM     17  C   UNL     1     -14.411   6.794   0.000  0.00  0.00    +0.466 C 
ATOM     18  O   UNL     1     -15.025   5.425   0.000  0.00  0.00    -0.452 OA
ATOM     19  C   UNL     1     -13.912   4.419   0.000  0.00  0.00    +0.174 A 
ATOM     20  C   UNL     1     -13.916   2.919   0.000  0.00  0.00    +0.036 A 
ATOM     21  C   UNL     1     -12.619   2.166   0.000  0.00  0.00    -0.015 A 
ATOM     22  C   UNL     1     -15.217   2.172   0.000  0.00  0.00    +0.035 A 
ATOM     23  C   UNL     1     -16.514   2.925   0.000  0.00  0.00    +0.169 A 
ENDROOT
BRANCH   1   2
ATOM      2  O   UNL     1     -19.112   2.931   0.000  0.00  0.00    -0.503 OA
ATOM      3  H   UNL     1     -19.110   3.868   0.000  0.00  0.00    +0.292 HD
ENDBRANCH   1   2
BRANCH  23  24
ATOM     24  O   UNL     1     -16.510   4.425   0.000  0.00  0.00    -0.491 OA
ATOM     25  C   UNL     1     -17.808   5.178   0.000  0.00  0.00    +0.277 C 
ENDBRANCH  23  24
TORSDOF 2