REMARK  Name = NSC 785145
REMARK  5 active torsions:
REMARK  status: ('A' for Active; 'I' for Inactive)
REMARK    1  A    between atoms: N_8  and  C_9
REMARK    2  A    between atoms: C_14  and  O_15
REMARK    3  A    between atoms: O_15  and  C_16
REMARK    4  A    between atoms: C_17  and  O_18
REMARK    5  A    between atoms: O_18  and  C_19
REMARK                            x       y       z     vdW  Elec       q    Type
REMARK                         _______ _______ _______ _____ _____    ______ ____
ROOT
ATOM      1  C   UNL     1       0.742  -6.740   0.000  0.00  0.00    +0.001 A 
ATOM      2  C   UNL     1       2.042  -5.992   0.000  0.00  0.00    +0.009 A 
ATOM      3  C   UNL     1       3.340  -6.743   0.000  0.00  0.00    -0.011 A 
ATOM      4  C   UNL     1       3.338  -8.243   0.000  0.00  0.00    -0.038 A 
ATOM      5  C   UNL     1       4.636  -8.995   0.000  0.00  0.00    +0.059 C 
ATOM      6  C   UNL     1       5.936  -8.246   0.000  0.00  0.00    +0.092 C 
ATOM      7  N   UNL     1       7.234  -8.998   0.000  0.00  0.00    -0.298 NA
ATOM      8  C   UNL     1       7.232 -10.498   0.000  0.00  0.00    +0.105 C 
ATOM      9  C   UNL     1       8.534  -8.250   0.000  0.00  0.00    +0.089 C 
ATOM     10  C   UNL     1       8.536  -6.750   0.000  0.00  0.00    +0.051 C 
ATOM     11  C   UNL     1       7.238  -5.998   0.000  0.00  0.00    -0.037 A 
ATOM     12  C   UNL     1       7.240  -4.498   0.000  0.00  0.00    +0.053 A 
ATOM     13  C   UNL     1       5.942  -3.746   0.000  0.00  0.00    +0.162 A 
ATOM     16  C   UNL     1       4.642  -4.495   0.000  0.00  0.00    +0.169 A 
ATOM     19  C   UNL     1       5.938  -6.746   0.000  0.00  0.00    -0.015 A 
ATOM     20  C   UNL     1       2.038  -8.992   0.000  0.00  0.00    +0.004 A 
ATOM     21  C   UNL     1       4.640  -5.995   0.000  0.00  0.00    +0.033 A 
ATOM     22  C   UNL     1       0.740  -8.240   0.000  0.00  0.00    +0.000 A 
ENDROOT
BRANCH  13  14
ATOM     14  O   UNL     1       5.943  -2.246   0.000  0.00  0.00    -0.491 OA
ATOM     15  C   UNL     1       7.243  -1.498   0.000  0.00  0.00    +0.277 C 
ENDBRANCH  13  14
BRANCH  16  17
ATOM     17  O   UNL     1       3.344  -3.743   0.000  0.00  0.00    -0.491 OA
ATOM     18  C   UNL     1       3.345  -2.243   0.000  0.00  0.00    +0.277 C 
ENDBRANCH  16  17
TORSDOF 2