REMARK  Name = NSC 785148#1
REMARK  3 active torsions:
REMARK  status: ('A' for Active; 'I' for Inactive)
REMARK    1  A    between atoms: C_1  and  O_2
REMARK    2  A    between atoms: C_3  and  O_22
REMARK    3  A    between atoms: O_22  and  C_23
REMARK                            x       y       z     vdW  Elec       q    Type
REMARK                         _______ _______ _______ _____ _____    ______ ____
ROOT
ATOM      1  C   UNL     1     -11.977  -1.211   0.000  0.00  0.00    +0.159 A 
ATOM      4  C   UNL     1     -10.676  -0.464   0.000  0.00  0.00    +0.169 A 
ATOM      5  C   UNL     1      -9.379  -1.217   0.000  0.00  0.00    +0.035 A 
ATOM      6  C   UNL     1      -8.078  -0.470   0.000  0.00  0.00    +0.036 A 
ATOM      7  C   UNL     1      -8.075   1.030   0.000  0.00  0.00    +0.174 A 
ATOM      8  O   UNL     1      -9.187   2.036   0.000  0.00  0.00    -0.452 OA
ATOM      9  C   UNL     1      -8.574   3.405   0.000  0.00  0.00    +0.466 C 
ATOM     10  O   UNL     1      -7.082   3.244   0.000  0.00  0.00    -0.453 OA
ATOM     11  C   UNL     1      -6.774   1.777   0.000  0.00  0.00    +0.167 A 
ATOM     12  C   UNL     1      -5.477   1.023   0.000  0.00  0.00    +0.053 A 
ATOM     13  C   UNL     1      -5.480  -0.477   0.000  0.00  0.00    -0.037 A 
ATOM     14  C   UNL     1      -4.183  -1.230   0.000  0.00  0.00    +0.050 C 
ATOM     15  C   UNL     1      -4.187  -2.730   0.000  0.00  0.00    +0.086 C 
ATOM     16  N   UNL     1      -5.487  -3.477   0.000  0.00  0.00    -0.309 NA
ATOM     17  H   UNL     1      -5.490  -4.497   0.000  0.00  0.00    +0.123 HD
ATOM     18  C   UNL     1      -6.785  -2.723   0.000  0.00  0.00    +0.089 C 
ATOM     19  C   UNL     1      -8.086  -3.470   0.000  0.00  0.00    +0.059 C 
ATOM     20  C   UNL     1      -6.781  -1.223   0.000  0.00  0.00    -0.015 A 
ATOM     21  C   UNL     1      -9.383  -2.717   0.000  0.00  0.00    -0.034 A 
ATOM     22  C   UNL     1     -10.684  -3.464   0.000  0.00  0.00    +0.008 A 
ATOM     25  C   UNL     1     -11.981  -2.711   0.000  0.00  0.00    +0.049 A 
ENDROOT
BRANCH   1   2
ATOM      2  O   UNL     1     -13.275  -0.458   0.000  0.00  0.00    -0.503 OA
ATOM      3  H   UNL     1     -13.272   0.479   0.000  0.00  0.00    +0.292 HD
ENDBRANCH   1   2
BRANCH   4  23
ATOM     23  O   UNL     1     -10.673   1.036   0.000  0.00  0.00    -0.491 OA
ATOM     24  C   UNL     1     -11.970   1.789   0.000  0.00  0.00    +0.277 C 
ENDBRANCH   4  23
TORSDOF 2