REMARK  Name = NSC 7616
REMARK  7 active torsions:
REMARK  status: ('A' for Active; 'I' for Inactive)
REMARK    1  A    between atoms: C_1  and  C_2
REMARK    2  A    between atoms: C_1  and  C_5
REMARK    3  A    between atoms: C_2  and  O_3
REMARK    4  A    between atoms: C_5  and  C_6
REMARK    5  A    between atoms: C_6  and  O_7
REMARK    6  A    between atoms: C_9  and  C_10
REMARK    7  A    between atoms: C_10  and  O_11
REMARK                            x       y       z     vdW  Elec       q    Type
REMARK                         _______ _______ _______ _____ _____    ______ ____
ROOT
ATOM      6  C   UNL     1       4.647   1.500   0.000  0.00  0.00    +0.054 C 
ATOM     11  C   UNL     1       5.946   0.750   0.000  0.00  0.00    +0.102 C 
ENDROOT
BRANCH   6   7
ATOM      7  C   UNL     1       4.647   3.000   0.000  0.00  0.00    +0.334 C 
ATOM     10  O   UNL     1       3.348   3.750   0.000  0.00  0.00    -0.245 OA
BRANCH   7   8
ATOM      8  O   UNL     1       5.946   3.750   0.000  0.00  0.00    -0.477 OA
ATOM      9  H   UNL     1       6.758   3.282   0.000  0.00  0.00    +0.295 HD
ENDBRANCH   7   8
ENDBRANCH   6   7
BRANCH  11  12
ATOM     12  C   UNL     1       7.245   1.500   0.000  0.00  0.00    +0.330 C 
ATOM     15  O   UNL     1       8.544   0.750   0.000  0.00  0.00    -0.246 OA
BRANCH  12  13
ATOM     13  O   UNL     1       7.245   3.000   0.000  0.00  0.00    -0.478 OA
ATOM     14  H   UNL     1       8.057   3.469   0.000  0.00  0.00    +0.295 HD
ENDBRANCH  12  13
ENDBRANCH  11  12
BRANCH   6   1
ATOM      1  C   UNL     1       3.348   0.750   0.000  0.00  0.00    +0.163 C 
BRANCH   1   2
ATOM      2  C   UNL     1       2.049   1.500   0.000  0.00  0.00    +0.309 C 
ATOM      5  O   UNL     1       0.750   0.750   0.000  0.00  0.00    -0.251 OA
BRANCH   2   3
ATOM      3  O   UNL     1       2.049   3.000   0.000  0.00  0.00    -0.480 OA
ATOM      4  H   UNL     1       2.860   3.469   0.000  0.00  0.00    +0.295 HD
ENDBRANCH   2   3
ENDBRANCH   1   2
ENDBRANCH   6   1
TORSDOF 7