REMARK  Name = NSC 785152#1
REMARK  4 active torsions:
REMARK  status: ('A' for Active; 'I' for Inactive)
REMARK    1  A    between atoms: C_1  and  N_2
REMARK    2  A    between atoms: C_11  and  O_12
REMARK    3  A    between atoms: C_13  and  O_14
REMARK    4  A    between atoms: O_14  and  C_15
REMARK                            x       y       z     vdW  Elec       q    Type
REMARK                         _______ _______ _______ _____ _____    ______ ____
ROOT
ATOM      1  C   UNL     1      -2.049  -7.500   0.000  0.00  0.00    +0.105 C 
ATOM      2  N   UNL     1      -2.049  -6.000   0.000  0.00  0.00    -0.298 NA
ATOM      3  C   UNL     1      -0.750  -5.250   0.000  0.00  0.00    +0.089 C 
ATOM      4  C   UNL     1      -0.750  -3.750   0.000  0.00  0.00    +0.051 C 
ATOM      5  C   UNL     1      -2.049  -3.000   0.000  0.00  0.00    -0.041 A 
ATOM      6  C   UNL     1      -2.049  -1.500   0.000  0.00  0.00    +0.004 A 
ATOM      7  C   UNL     1      -3.348  -0.750   0.000  0.00  0.00    +0.001 A 
ATOM      8  C   UNL     1      -4.647  -1.500   0.000  0.00  0.00    +0.009 A 
ATOM      9  C   UNL     1      -4.647  -3.000   0.000  0.00  0.00    -0.009 A 
ATOM     10  C   UNL     1      -5.946  -3.750   0.000  0.00  0.00    +0.031 A 
ATOM     11  C   UNL     1      -7.245  -3.000   0.000  0.00  0.00    +0.167 A 
ATOM     14  C   UNL     1      -8.544  -3.750   0.000  0.00  0.00    +0.162 A 
ATOM     17  C   UNL     1      -8.544  -5.250   0.000  0.00  0.00    +0.050 A 
ATOM     18  C   UNL     1      -7.245  -6.000   0.000  0.00  0.00    +0.008 A 
ATOM     19  C   UNL     1      -5.946  -5.250   0.000  0.00  0.00    -0.034 A 
ATOM     20  C   UNL     1      -4.647  -6.000   0.000  0.00  0.00    +0.059 C 
ATOM     21  C   UNL     1      -3.348  -3.750   0.000  0.00  0.00    -0.019 A 
ATOM     22  C   UNL     1      -3.348  -5.250   0.000  0.00  0.00    +0.092 C 
ENDROOT
BRANCH  11  12
ATOM     12  O   UNL     1      -7.245  -1.500   0.000  0.00  0.00    -0.503 OA
ATOM     13  H   UNL     1      -6.434  -1.031   0.000  0.00  0.00    +0.292 HD
ENDBRANCH  11  12
BRANCH  14  15
ATOM     15  O   UNL     1      -9.843  -3.000   0.000  0.00  0.00    -0.491 OA
ATOM     16  C   UNL     1     -11.142  -3.750   0.000  0.00  0.00    +0.277 C 
ENDBRANCH  14  15
TORSDOF 2