REMARK  Name = NSC 785153#1
REMARK  5 active torsions:
REMARK  status: ('A' for Active; 'I' for Inactive)
REMARK    1  A    between atoms: C_1  and  N_2
REMARK    2  A    between atoms: C_9  and  O_10
REMARK    3  A    between atoms: O_10  and  C_11
REMARK    4  A    between atoms: C_12  and  O_13
REMARK    5  A    between atoms: O_13  and  C_14
REMARK                            x       y       z     vdW  Elec       q    Type
REMARK                         _______ _______ _______ _____ _____    ______ ____
ROOT
ATOM      1  C   UNL     1      -3.824  -4.658   0.000  0.00  0.00    +0.105 C 
ATOM      2  N   UNL     1      -3.824  -3.158   0.000  0.00  0.00    -0.298 NA
ATOM      3  C   UNL     1      -5.123  -2.408   0.000  0.00  0.00    +0.092 C 
ATOM      4  C   UNL     1      -6.422  -3.158   0.000  0.00  0.00    +0.059 C 
ATOM      5  C   UNL     1      -7.721  -2.408   0.000  0.00  0.00    -0.034 A 
ATOM      6  C   UNL     1      -9.020  -3.158   0.000  0.00  0.00    +0.008 A 
ATOM      7  C   UNL     1     -10.319  -2.408   0.000  0.00  0.00    +0.050 A 
ATOM      8  C   UNL     1     -10.319  -0.908   0.000  0.00  0.00    +0.162 A 
ATOM     11  C   UNL     1      -9.020  -0.158   0.000  0.00  0.00    +0.169 A 
ATOM     14  C   UNL     1      -7.721  -0.908   0.000  0.00  0.00    +0.031 A 
ATOM     15  C   UNL     1      -6.422  -0.158   0.000  0.00  0.00    -0.009 A 
ATOM     16  C   UNL     1      -6.422   1.342   0.000  0.00  0.00    +0.009 A 
ATOM     17  C   UNL     1      -5.123   2.092   0.000  0.00  0.00    +0.001 A 
ATOM     18  C   UNL     1      -3.824   1.342   0.000  0.00  0.00    +0.004 A 
ATOM     19  C   UNL     1      -3.824  -0.158   0.000  0.00  0.00    -0.041 A 
ATOM     20  C   UNL     1      -2.525  -0.908   0.000  0.00  0.00    +0.051 C 
ATOM     21  C   UNL     1      -5.123  -0.908   0.000  0.00  0.00    -0.019 A 
ATOM     22  C   UNL     1      -2.525  -2.408   0.000  0.00  0.00    +0.089 C 
ENDROOT
BRANCH   8   9
ATOM      9  O   UNL     1     -11.618  -0.158   0.000  0.00  0.00    -0.491 OA
ATOM     10  C   UNL     1     -11.618   1.342   0.000  0.00  0.00    +0.277 C 
ENDBRANCH   8   9
BRANCH  11  12
ATOM     12  O   UNL     1      -9.020   1.342   0.000  0.00  0.00    -0.491 OA
ATOM     13  C   UNL     1     -10.319   2.092   0.000  0.00  0.00    +0.277 C 
ENDBRANCH  11  12
TORSDOF 2