REMARK  Name = NSC 785156
REMARK  0 active torsions:
REMARK  status: ('A' for Active; 'I' for Inactive)
REMARK                            x       y       z     vdW  Elec       q    Type
REMARK                         _______ _______ _______ _____ _____    ______ ____
ROOT
ATOM      1  C   UNL     1      -1.406  -8.843   0.000  0.00  0.00    +0.036 A 
ATOM      2  N   UNL     1      -0.107  -9.593   0.000  0.00  0.00    -0.343 N 
ATOM      3  H   UNL     1      -0.107 -10.577   0.000  0.00  0.00    +0.146 HD
ATOM      4  C   UNL     1       1.192  -8.843   0.000  0.00  0.00    +0.106 C 
ATOM      5  C   UNL     1       1.192  -7.343   0.000  0.00  0.00    +0.054 C 
ATOM      6  C   UNL     1      -0.107  -6.593   0.000  0.00  0.00    -0.033 A 
ATOM      7  C   UNL     1      -0.107  -5.093   0.000  0.00  0.00    +0.054 A 
ATOM      8  C   UNL     1      -1.406  -4.343   0.000  0.00  0.00    +0.167 A 
ATOM      9  O   UNL     1      -1.718  -2.876   0.000  0.00  0.00    -0.453 OA
ATOM     10  C   UNL     1      -3.209  -2.719   0.000  0.00  0.00    +0.466 C 
ATOM     11  O   UNL     1      -3.819  -4.089   0.000  0.00  0.00    -0.452 OA
ATOM     12  C   UNL     1      -2.705  -5.093   0.000  0.00  0.00    +0.175 A 
ATOM     13  C   UNL     1      -2.705  -6.593   0.000  0.00  0.00    +0.037 A 
ATOM     14  C   UNL     1      -4.004  -7.343   0.000  0.00  0.00    -0.006 A 
ATOM     15  C   UNL     1      -5.303  -6.593   0.000  0.00  0.00    +0.009 A 
ATOM     16  C   UNL     1      -6.602  -7.343   0.000  0.00  0.00    +0.001 A 
ATOM     17  C   UNL     1      -6.602  -8.843   0.000  0.00  0.00    +0.001 A 
ATOM     18  C   UNL     1      -5.303  -9.593   0.000  0.00  0.00    +0.008 A 
ATOM     19  C   UNL     1      -4.004  -8.843   0.000  0.00  0.00    -0.015 A 
ATOM     20  C   UNL     1      -2.705  -9.593   0.000  0.00  0.00    +0.032 A 
ATOM     21  C   UNL     1      -1.406  -7.343   0.000  0.00  0.00    +0.011 A 
ENDROOT
TORSDOF 0