REMARK  Name = NSC 785185#2
REMARK  4 active torsions:
REMARK  status: ('A' for Active; 'I' for Inactive)
REMARK    1  A    between atoms: C_4  and  C_5
REMARK    2  A    between atoms: C_5  and  O_6
REMARK    3  A    between atoms: C_5  and  C_7
REMARK    4  A    between atoms: C_7  and  O_8
REMARK                            x       y       z     vdW  Elec       q    Type
REMARK                         _______ _______ _______ _____ _____    ______ ____
ROOT
ATOM      5  C   UNL     1      -2.833 -14.734   0.000  0.00  0.00    +0.253 C 
ENDROOT
BRANCH   5   4
ATOM      1  C   UNL     1       1.064 -12.484   0.000  0.00  0.00    +0.000 A 
ATOM      2  C   UNL     1      -0.235 -11.734   0.000  0.00  0.00    +0.000 A 
ATOM      3  C   UNL     1      -1.534 -12.484   0.000  0.00  0.00    +0.007 A 
ATOM      4  C   UNL     1      -1.534 -13.984   0.000  0.00  0.00    -0.008 A 
ATOM     12  C   UNL     1      -0.235 -14.734   0.000  0.00  0.00    +0.007 A 
ATOM     13  C   UNL     1       1.064 -13.984   0.000  0.00  0.00    +0.000 A 
ENDBRANCH   5   4
BRANCH   5   6
ATOM      6  O   UNL     1      -2.833 -16.234   0.000  0.00  0.00    -0.376 OA
ATOM      7  H   UNL     1      -3.673 -16.719   0.000  0.00  0.00    +0.211 HD
ENDBRANCH   5   6
BRANCH   5   8
ATOM      8  C   UNL     1      -4.132 -13.984   0.000  0.00  0.00    +0.338 C 
ATOM     11  O   UNL     1      -5.431 -14.734   0.000  0.00  0.00    -0.248 OA
BRANCH   8   9
ATOM      9  O   UNL     1      -4.132 -12.484   0.000  0.00  0.00    -0.479 OA
ATOM     10  H   UNL     1      -3.320 -12.015   0.000  0.00  0.00    +0.295 HD
ENDBRANCH   8   9
ENDBRANCH   5   8
TORSDOF 4