REMARK  Name = NSC 43871
REMARK  2 active torsions:
REMARK  status: ('A' for Active; 'I' for Inactive)
REMARK    1  A    between atoms: N_1  and  C_2
REMARK    2  A    between atoms: C_7  and  O_8
REMARK                            x       y       z     vdW  Elec       q    Type
REMARK                         _______ _______ _______ _____ _____    ______ ____
ROOT
ATOM      1  N   UNL     1       4.338   1.439   0.000  0.00  0.00    -0.299 NA
ATOM      2  C   UNL     1       3.949   2.888   0.000  0.00  0.00    +0.105 C 
ATOM      3  C   UNL     1       4.338  -1.156   0.000  0.00  0.00    +0.059 C 
ATOM      4  C   UNL     1       3.277  -2.216   0.000  0.00  0.00    +0.020 C 
ATOM      5  C   UNL     1       3.277  -0.716   0.000  0.00  0.00    +0.020 C 
ATOM      6  C   UNL     1       5.787  -1.544   0.000  0.00  0.00    +0.050 C 
ATOM      7  C   UNL     1       7.287  -1.544   0.000  0.00  0.00    +0.117 C 
ATOM     10  C   UNL     1       6.537  -0.245   0.000  0.00  0.00    +0.050 C 
ATOM     11  C   UNL     1       5.088   0.143   0.000  0.00  0.00    +0.059 C 
ENDROOT
BRANCH   7   8
ATOM      8  O   UNL     1       8.586  -2.294   0.000  0.00  0.00    -0.392 OA
ATOM      9  H   UNL     1       8.586  -3.264   0.000  0.00  0.00    +0.210 HD
ENDBRANCH   7   8
TORSDOF 1