REMARK  Name = NSC 401005
REMARK  1 active torsions:
REMARK  status: ('A' for Active; 'I' for Inactive)
REMARK    1  A    between atoms: C_8  and  C_9
REMARK                            x       y       z     vdW  Elec       q    Type
REMARK                         _______ _______ _______ _____ _____    ______ ____
ROOT
ATOM      1  C   UNL     1      -9.124  -6.851   0.000  0.00  0.00    +0.055 C 
ATOM      2  C   UNL     1      -7.825  -6.101   0.000  0.00  0.00    +0.185 C 
ATOM      3  O   UNL     1      -7.825  -4.601   0.000  0.00  0.00    -0.288 OA
ATOM      4  C   UNL     1      -6.526  -6.851   0.000  0.00  0.00    +0.038 C 
ATOM      5  C   UNL     1      -5.227  -6.101   0.000  0.00  0.00    +0.156 C 
ATOM      6  O   UNL     1      -5.487  -4.623   0.000  0.00  0.00    -0.371 OA
ATOM      7  C   UNL     1      -4.523  -3.474   0.000  0.00  0.00    +0.164 C 
ATOM      8  C   UNL     1      -3.023  -3.474   0.000  0.00  0.00    +0.015 C 
ATOM      9  C   UNL     1      -2.389  -2.115   0.000  0.00  0.00    +0.010 C 
ATOM     10  C   UNL     1      -2.059  -4.623   0.000  0.00  0.00    -0.002 C 
ATOM     11  C   UNL     1      -2.629  -6.101   0.000  0.00  0.00    +0.002 C 
ATOM     12  C   UNL     1      -1.330  -6.851   0.000  0.00  0.00    -0.006 C 
ATOM     13  C   UNL     1      -0.093  -6.105   0.000  0.00  0.00    +0.004 C 
ATOM     14  C   UNL     1      -1.330  -8.351   0.000  0.00  0.00    +0.019 C 
ATOM     15  C   UNL     1      -2.629  -9.101   0.000  0.00  0.00    +0.105 C 
ATOM     16  C   UNL     1      -3.017 -10.550   0.000  0.00  0.00    +0.311 C 
ATOM     17  O   UNL     1      -2.104 -11.740   0.000  0.00  0.00    -0.251 OA
ATOM     18  O   UNL     1      -4.517 -10.550   0.000  0.00  0.00    -0.456 OA
ATOM     19  C   UNL     1      -5.227  -9.101   0.000  0.00  0.00    +0.215 C 
ATOM     20  C   UNL     1      -3.928  -8.351   0.000  0.00  0.00    +0.054 C 
ATOM     21  C   UNL     1      -0.560  -4.680   0.000  0.00  0.00    +0.004 C 
ATOM     22  C   UNL     1      -3.928  -6.851   0.000  0.00  0.00    +0.034 C 
ATOM     23  C   UNL     1      -6.526  -8.351   0.000  0.00  0.00    +0.049 C 
ATOM     24  C   UNL     1      -7.825  -9.101   0.000  0.00  0.00    +0.186 C 
ATOM     25  O   UNL     1      -7.825 -10.601   0.000  0.00  0.00    -0.287 OA
ATOM     26  C   UNL     1      -9.124  -8.351   0.000  0.00  0.00    +0.055 C 
ENDROOT
TORSDOF 0