REMARK  Name = NSC 36351
REMARK  4 active torsions:
REMARK  status: ('A' for Active; 'I' for Inactive)
REMARK    1  A    between atoms: C_4  and  O_5
REMARK    2  A    between atoms: O_5  and  C_6
REMARK    3  A    between atoms: C_7  and  O_8
REMARK    4  A    between atoms: O_8  and  C_9
REMARK                            x       y       z     vdW  Elec       q    Type
REMARK                         _______ _______ _______ _____ _____    ______ ____
ROOT
ATOM      1  N   UNL     1       5.471   5.524   0.000  0.00  0.00    -0.291 NA
ATOM      2  C   UNL     1       4.172   4.774   0.000  0.00  0.00    +0.124 C 
ATOM      3  C   UNL     1       2.873   5.524   0.000  0.00  0.00    +0.015 A 
ATOM      4  C   UNL     1       1.574   4.774   0.000  0.00  0.00    +0.166 A 
ATOM      7  C   UNL     1       0.275   5.524   0.000  0.00  0.00    +0.162 A 
ATOM     10  C   UNL     1       0.275   7.024   0.000  0.00  0.00    +0.050 A 
ATOM     11  C   UNL     1       1.574   7.774   0.000  0.00  0.00    +0.008 A 
ATOM     12  C   UNL     1       2.873   7.024   0.000  0.00  0.00    -0.037 A 
ATOM     13  C   UNL     1       4.172   7.774   0.000  0.00  0.00    +0.059 C 
ATOM     14  C   UNL     1       6.770   4.774   0.000  0.00  0.00    +0.090 C 
ATOM     15  C   UNL     1       8.069   5.524   0.000  0.00  0.00    +0.051 C 
ATOM     16  C   UNL     1       8.069   7.024   0.000  0.00  0.00    -0.038 A 
ATOM     17  C   UNL     1       6.770   7.774   0.000  0.00  0.00    -0.023 A 
ATOM     18  C   UNL     1       6.770   9.274   0.000  0.00  0.00    +0.055 A 
ATOM     19  C   UNL     1       8.069  10.025   0.000  0.00  0.00    +0.167 A 
ATOM     20  C   UNL     1       9.368   9.274   0.000  0.00  0.00    +0.167 A 
ATOM     21  O   UNL     1      10.483  10.278   0.000  0.00  0.00    -0.453 OA
ATOM     22  C   UNL     1       9.872  11.649   0.000  0.00  0.00    +0.466 C 
ATOM     23  O   UNL     1       8.381  11.492   0.000  0.00  0.00    -0.453 OA
ATOM     24  C   UNL     1       9.368   7.774   0.000  0.00  0.00    +0.053 A 
ATOM     25  C   UNL     1       5.471   7.024   0.000  0.00  0.00    +0.092 C 
ENDROOT
BRANCH   4   5
ATOM      5  O   UNL     1       1.573   3.275   0.000  0.00  0.00    -0.491 OA
ATOM      6  C   UNL     1       0.275   2.525   0.000  0.00  0.00    +0.277 C 
ENDBRANCH   4   5
BRANCH   7   8
ATOM      8  O   UNL     1      -1.025   4.774   0.000  0.00  0.00    -0.491 OA
ATOM      9  C   UNL     1      -2.324   5.524   0.000  0.00  0.00    +0.277 C 
ENDBRANCH   7   8
TORSDOF 2