REMARK  Name = NSC 127445
REMARK  10 active torsions:
REMARK  status: ('A' for Active; 'I' for Inactive)
REMARK    1  A    between atoms: C_1  and  O_2
REMARK    2  A    between atoms: C_1  and  C_3
REMARK    3  A    between atoms: C_1  and  C_4
REMARK    4  A    between atoms: C_1  and  C_6
REMARK    5  A    between atoms: C_4  and  C_5
REMARK    6  A    between atoms: N_7  and  O_8
REMARK    7  A    between atoms: C_11  and  C_12
REMARK    8  A    between atoms: C_12  and  C_13
REMARK    9  A    between atoms: C_13  and  C_14
REMARK   10  A    between atoms: C_13  and  C_15
REMARK                            x       y       z     vdW  Elec       q    Type
REMARK                         _______ _______ _______ _____ _____    ______ ____
ROOT
ATOM      7  C   UNL     1       2.223   5.149   0.000  0.00  0.00    +0.111 A 
ATOM      8  N   UNL     1       3.522   4.399   0.000  0.00  0.00    -0.145 N 
ATOM     11  C   UNL     1       4.821   5.149   0.000  0.00  0.00    +0.305 A 
ATOM     12  O   UNL     1       6.120   4.399   0.000  0.00  0.00    -0.263 OA
ATOM     13  C   UNL     1       4.821   6.649   0.000  0.00  0.00    +0.109 A 
ATOM     18  N   UNL     1       3.522   7.399   0.000  0.00  0.00    -0.252 NA
ATOM     19  C   UNL     1       2.223   6.649   0.000  0.00  0.00    +0.139 A 
ENDROOT
BRANCH   7   1
ATOM      1  C   UNL     1       0.924   4.399   0.000  0.00  0.00    +0.108 C 
ATOM      4  C   UNL     1       0.174   5.699   0.000  0.00  0.00    +0.048 C 
BRANCH   1   2
ATOM      2  O   UNL     1       1.674   3.100   0.000  0.00  0.00    -0.383 OA
ATOM      3  H   UNL     1       1.189   2.260   0.000  0.00  0.00    +0.211 HD
ENDBRANCH   1   2
BRANCH   1   5
ATOM      5  C   UNL     1      -0.375   3.650   0.000  0.00  0.00    +0.037 C 
ATOM      6  C   UNL     1      -1.674   4.399   0.000  0.00  0.00    +0.007 C 
ENDBRANCH   1   5
ENDBRANCH   7   1
BRANCH   8   9
ATOM      9  O   UNL     1       3.522   2.900   0.000  0.00  0.00    -0.423 OA
ATOM     10  H   UNL     1       2.711   2.431   0.000  0.00  0.00    +0.326 HD
ENDBRANCH   8   9
BRANCH  13  14
ATOM     14  C   UNL     1       6.120   7.399   0.000  0.00  0.00    +0.064 C 
BRANCH  14  15
ATOM     15  C   UNL     1       7.419   6.649   0.000  0.00  0.00    -0.011 C 
ATOM     16  C   UNL     1       7.419   5.149   0.000  0.00  0.00    +0.007 C 
ATOM     17  C   UNL     1       8.718   7.399   0.000  0.00  0.00    +0.007 C 
ENDBRANCH  14  15
ENDBRANCH  13  14
TORSDOF 6