REMARK  Name = NSC 169627
REMARK  27 active torsions:
REMARK  status: ('A' for Active; 'I' for Inactive)
REMARK    1  A    between atoms: C_4  and  C_5
REMARK    2  A    between atoms: C_5  and  C_6
REMARK    3  A    between atoms: C_7  and  C_8
REMARK    4  A    between atoms: C_8  and  C_9
REMARK    5  A    between atoms: C_14  and  O_15
REMARK    6  A    between atoms: O_15  and  C_16
REMARK    7  A    between atoms: C_16  and  C_17
REMARK    8  A    between atoms: C_19  and  C_20
REMARK    9  A    between atoms: C_21  and  N_22
REMARK   10  A    between atoms: C_23  and  C_24
REMARK   11  A    between atoms: C_24  and  C_25
REMARK   12  A    between atoms: C_26  and  C_28
REMARK   13  A    between atoms: C_29  and  C_30
REMARK   14  A    between atoms: C_30  and  C_31
REMARK   15  A    between atoms: C_30  and  C_32
REMARK   16  A    between atoms: C_32  and  C_33
REMARK   17  A    between atoms: C_32  and  O_48
REMARK   18  A    between atoms: C_33  and  C_34
REMARK   19  A    between atoms: C_33  and  C_35
REMARK   20  A    between atoms: C_37  and  O_38
REMARK   21  A    between atoms: C_39  and  C_40
REMARK   22  A    between atoms: C_41  and  O_42
REMARK   23  A    between atoms: C_43  and  C_44
REMARK   24  A    between atoms: C_44  and  O_46
REMARK   25  A    between atoms: O_46  and  C_47
REMARK   26  A    between atoms: C_53  and  O_54
REMARK   27  A    between atoms: C_58  and  C_59
REMARK                            x       y       z     vdW  Elec       q    Type
REMARK                         _______ _______ _______ _____ _____    ______ ____
ROOT
ATOM     21  N   UNL     1       8.544   9.750   0.000  0.00  0.00    -0.279 N 
ATOM     22  C   UNL     1       9.843   9.000   0.000  0.00  0.00    +0.244 C 
ATOM     50  O   UNL     1       9.843   7.500   0.000  0.00  0.00    -0.270 OA
ATOM     51  H   UNL     1       8.544  11.250   0.000  0.00  0.00    +0.155 HD
ENDROOT
BRANCH  21  20
ATOM      1  O   UNL     1       2.049   4.500   0.000  0.00  0.00    -0.455 OA
ATOM      2  C   UNL     1       0.750   5.250   0.000  0.00  0.00    +0.466 C 
ATOM      3  O   UNL     1       0.750   6.750   0.000  0.00  0.00    -0.455 OA
ATOM      4  C   UNL     1       2.049   7.500   0.000  0.00  0.00    +0.139 C 
ATOM     11  C   UNL     1       3.348   6.750   0.000  0.00  0.00    +0.071 C 
ATOM     12  C   UNL     1       4.647   7.500   0.000  0.00  0.00    +0.046 A 
ATOM     13  C   UNL     1       4.647   9.000   0.000  0.00  0.00    +0.145 A 
ATOM     18  C   UNL     1       5.946   9.750   0.000  0.00  0.00    +0.017 A 
ATOM     19  C   UNL     1       5.946  11.250   0.000  0.00  0.00    +0.049 C 
ATOM     20  C   UNL     1       7.245   9.000   0.000  0.00  0.00    +0.083 A 
ATOM     52  C   UNL     1       7.245   7.500   0.000  0.00  0.00    +0.150 A 
ATOM     55  C   UNL     1       5.946   6.750   0.000  0.00  0.00    +0.077 A 
ATOM     56  C   UNL     1       5.946   5.250   0.000  0.00  0.00    +0.197 C 
ATOM     57  O   UNL     1       7.245   4.500   0.000  0.00  0.00    -0.287 OA
ATOM     58  C   UNL     1       4.647   4.500   0.000  0.00  0.00    +0.039 C 
ATOM     59  C   UNL     1       4.647   3.000   0.000  0.00  0.00    +0.051 C 
ATOM     60  C   UNL     1       3.348   5.250   0.000  0.00  0.00    +0.143 C 
BRANCH   4   5
ATOM      5  C   UNL     1       2.049   9.000   0.000  0.00  0.00    -0.005 C 
ATOM      6  C   UNL     1       3.348   9.750   0.000  0.00  0.00    +0.047 C 
ATOM      7  C   UNL     1       0.750   9.750   0.000  0.00  0.00    +0.052 C 
BRANCH   7   8
ATOM      8  C   UNL     1       0.750  11.250   0.000  0.00  0.00    +0.153 C 
ATOM      9  C   UNL     1       2.049  12.000   0.000  0.00  0.00    +0.091 C 
ATOM     10  O   UNL     1      -0.549  12.000   0.000  0.00  0.00    -0.293 OA
ENDBRANCH   7   8
ENDBRANCH   4   5
BRANCH  52  53
ATOM     53  O   UNL     1       8.544   6.750   0.000  0.00  0.00    -0.504 OA
ATOM     54  H   UNL     1       8.544   5.813   0.000  0.00  0.00    +0.292 HD
ENDBRANCH  52  53
BRANCH  13  14
ATOM     14  O   UNL     1       3.348   9.750   0.000  0.00  0.00    -0.425 OA
BRANCH  14  15
ATOM     15  C   UNL     1       3.348  11.250   0.000  0.00  0.00    +0.309 C 
ATOM     16  C   UNL     1       2.049  12.000   0.000  0.00  0.00    +0.136 C 
ATOM     17  O   UNL     1       4.647  12.000   0.000  0.00  0.00    -0.251 OA
ENDBRANCH  14  15
ENDBRANCH  13  14
ENDBRANCH  21  20
BRANCH  22  23
ATOM     23  C   UNL     1      11.142   9.750   0.000  0.00  0.00    +0.012 C 
ATOM     24  C   UNL     1      11.142  11.250   0.000  0.00  0.00    +0.049 C 
ATOM     25  C   UNL     1      12.441   9.000   0.000  0.00  0.00    +0.008 C 
BRANCH  25  26
ATOM     26  C   UNL     1      13.740   9.750   0.000  0.00  0.00    -0.003 C 
ATOM     27  C   UNL     1      15.039   9.000   0.000  0.00  0.00    -0.021 C 
BRANCH  27  28
ATOM     28  C   UNL     1      15.039   7.500   0.000  0.00  0.00    +0.037 C 
ATOM     29  C   UNL     1      13.740   6.750   0.000  0.00  0.00    +0.014 C 
BRANCH  28  30
ATOM     30  C   UNL     1      16.339   6.750   0.000  0.00  0.00    +0.126 C 
BRANCH  30  31
ATOM     31  C   UNL     1      16.339   5.250   0.000  0.00  0.00    +0.045 C 
ATOM     32  C   UNL     1      15.039   4.500   0.000  0.00  0.00    +0.013 C 
BRANCH  31  33
ATOM     33  C   UNL     1      17.637   4.500   0.000  0.00  0.00    +0.143 C 
ATOM     34  O   UNL     1      18.936   5.250   0.000  0.00  0.00    -0.347 OA
ATOM     35  C   UNL     1      20.236   4.500   0.000  0.00  0.00    +0.253 C 
ATOM     38  C   UNL     1      20.236   3.000   0.000  0.00  0.00    +0.071 C 
ATOM     39  C   UNL     1      21.535   2.250   0.000  0.00  0.00    +0.015 C 
ATOM     40  C   UNL     1      18.936   2.250   0.000  0.00  0.00    +0.138 C 
ATOM     43  C   UNL     1      17.637   3.000   0.000  0.00  0.00    +0.156 C 
BRANCH  35  36
ATOM     36  O   UNL     1      21.535   5.250   0.000  0.00  0.00    -0.367 OA
ATOM     37  H   UNL     1      22.375   4.765   0.000  0.00  0.00    +0.212 HD
ENDBRANCH  35  36
BRANCH  40  41
ATOM     41  O   UNL     1      18.936   0.750   0.000  0.00  0.00    -0.390 OA
ATOM     42  H   UNL     1      18.096   0.265   0.000  0.00  0.00    +0.210 HD
ENDBRANCH  40  41
BRANCH  43  44
ATOM     44  C   UNL     1      16.339   2.250   0.000  0.00  0.00    +0.315 C 
ATOM     45  O   UNL     1      15.039   3.000   0.000  0.00  0.00    -0.250 OA
BRANCH  44  46
ATOM     46  O   UNL     1      16.339   0.750   0.000  0.00  0.00    -0.468 OA
ATOM     47  C   UNL     1      17.637   0.000   0.000  0.00  0.00    +0.280 C 
ENDBRANCH  44  46
ENDBRANCH  43  44
ENDBRANCH  31  33
ENDBRANCH  30  31
BRANCH  30  48
ATOM     48  O   UNL     1      17.637   7.500   0.000  0.00  0.00    -0.391 OA
ATOM     49  H   UNL     1      18.478   7.015   0.000  0.00  0.00    +0.210 HD
ENDBRANCH  30  48
ENDBRANCH  28  30
ENDBRANCH  27  28
ENDBRANCH  25  26
ENDBRANCH  22  23
TORSDOF 17