REMARK  Name = NSC 263164#1
REMARK  10 active torsions:
REMARK  status: ('A' for Active; 'I' for Inactive)
REMARK    1  A    between atoms: N_8  and  C_9
REMARK    2  A    between atoms: C_9  and  C_10
REMARK    3  A    between atoms: C_9  and  C_16
REMARK    4  A    between atoms: C_10  and  C_11
REMARK    5  A    between atoms: C_11  and  C_12
REMARK    6  A    between atoms: C_12  and  C_13
REMARK    7  A    between atoms: C_13  and  C_14
REMARK    8  A    between atoms: C_14  and  C_15
REMARK    9  A    between atoms: C_16  and  C_17
REMARK   10  A    between atoms: C_16  and  O_18
REMARK                            x       y       z     vdW  Elec       q    Type
REMARK                         _______ _______ _______ _____ _____    ______ ____
ROOT
ATOM      1  N   UNL     1       2.642   1.007   0.000  0.00  0.00    -0.219 NA
ATOM      2  C   UNL     1       2.642  -0.493   0.000  0.00  0.00    +0.225 A 
ATOM      3  N   UNL     1       3.942  -1.243   0.000  0.00  0.00    -0.216 NA
ATOM      4  C   UNL     1       5.240  -0.493   0.000  0.00  0.00    +0.166 A 
ATOM      5  C   UNL     1       5.240   1.007   0.000  0.00  0.00    +0.147 A 
ATOM      6  N   UNL     1       6.667   1.470   0.000  0.00  0.00    -0.231 NA
ATOM      7  C   UNL     1       7.549   0.257   0.000  0.00  0.00    +0.202 A 
ATOM      8  N   UNL     1       6.667  -0.957   0.000  0.00  0.00    -0.309 N 
ATOM     20  C   UNL     1       3.942   1.757   0.000  0.00  0.00    +0.147 A 
ATOM     21  N   UNL     1       3.942   3.257   0.000  0.00  0.00    -0.341 N 
ATOM     22  H   UNL     1       3.089   3.749   0.000  0.00  0.00    +0.144 HD
ATOM     23  H   UNL     1       4.794   3.749   0.000  0.00  0.00    +0.144 HD
ENDROOT
BRANCH   8   9
ATOM      9  C   UNL     1       7.131  -2.384   0.000  0.00  0.00    +0.118 C 
BRANCH   9  16
ATOM     16  C   UNL     1       8.598  -2.695   0.000  0.00  0.00    +0.134 C 
ATOM     17  C   UNL     1       9.061  -4.122   0.000  0.00  0.00    +0.040 C 
BRANCH  16  18
ATOM     18  O   UNL     1      10.024  -2.232   0.000  0.00  0.00    -0.390 OA
ATOM     19  H   UNL     1      10.745  -2.881   0.000  0.00  0.00    +0.210 HD
ENDBRANCH  16  18
ENDBRANCH   9  16
BRANCH   9  10
ATOM     10  C   UNL     1       6.127  -3.498   0.000  0.00  0.00    +0.028 C 
BRANCH  10  11
ATOM     11  C   UNL     1       6.590  -4.925   0.000  0.00  0.00    +0.002 C 
BRANCH  11  12
ATOM     12  C   UNL     1       8.089  -4.977   0.000  0.00  0.00    +0.000 C 
BRANCH  12  13
ATOM     13  C   UNL     1       8.553  -6.404   0.000  0.00  0.00    -0.000 C 
BRANCH  13  14
ATOM     14  C   UNL     1      10.020  -6.716   0.000  0.00  0.00    -0.003 C 
ATOM     15  C   UNL     1      10.484  -8.142   0.000  0.00  0.00    +0.004 C 
ENDBRANCH  13  14
ENDBRANCH  12  13
ENDBRANCH  11  12
ENDBRANCH  10  11
ENDBRANCH   9  10
ENDBRANCH   8   9
TORSDOF 8