REMARK  Name = NSC 62786
REMARK  7 active torsions:
REMARK  status: ('A' for Active; 'I' for Inactive)
REMARK    1  A    between atoms: C_2  and  O_3
REMARK    2  A    between atoms: C_2  and  C_4
REMARK    3  A    between atoms: C_2  and  C_7
REMARK    4  A    between atoms: C_4  and  N_5
REMARK    5  A    between atoms: N_5  and  C_6
REMARK    6  A    between atoms: C_10  and  O_11
REMARK    7  A    between atoms: C_12  and  O_13
REMARK                            x       y       z     vdW  Elec       q    Type
REMARK                         _______ _______ _______ _____ _____    ______ ____
ROOT
ATOM      8  C   UNL     1      -5.946  -2.799   0.000  0.00  0.00    -0.014 A 
ATOM      9  C   UNL     1      -5.946  -4.299   0.000  0.00  0.00    +0.010 A 
ATOM     10  C   UNL     1      -7.245  -5.049   0.000  0.00  0.00    +0.049 A 
ATOM     11  C   UNL     1      -8.544  -4.299   0.000  0.00  0.00    +0.158 A 
ATOM     14  C   UNL     1      -8.544  -2.799   0.000  0.00  0.00    +0.159 A 
ATOM     17  C   UNL     1      -7.245  -2.049   0.000  0.00  0.00    +0.055 A 
ENDROOT
BRANCH  11  12
ATOM     12  O   UNL     1      -9.843  -5.049   0.000  0.00  0.00    -0.503 OA
ATOM     13  H   UNL     1     -10.655  -4.581   0.000  0.00  0.00    +0.292 HD
ENDBRANCH  11  12
BRANCH  14  15
ATOM     15  O   UNL     1      -9.843  -2.049   0.000  0.00  0.00    -0.503 OA
ATOM     16  H   UNL     1      -9.843  -1.112   0.000  0.00  0.00    +0.292 HD
ENDBRANCH  14  15
BRANCH   8   1
ATOM      1  C   UNL     1      -4.647  -2.049   0.000  0.00  0.00    +0.158 C 
BRANCH   1   2
ATOM      2  O   UNL     1      -3.897  -0.750   0.000  0.00  0.00    -0.386 OA
ATOM      3  H   UNL     1      -2.927  -0.750   0.000  0.00  0.00    +0.210 HD
ENDBRANCH   1   2
BRANCH   1   4
ATOM      4  C   UNL     1      -3.348  -2.799   0.000  0.00  0.00    +0.116 C 
BRANCH   4   5
ATOM      5  N   UNL     1      -2.049  -2.049   0.000  0.00  0.00    -0.316 NA
ATOM      6  H   UNL     1      -2.049  -1.029   0.000  0.00  0.00    +0.122 HD
ATOM      7  C   UNL     1      -0.750  -2.799   0.000  0.00  0.00    +0.101 C 
ENDBRANCH   4   5
ENDBRANCH   1   4
ENDBRANCH   8   1
TORSDOF 6