REMARK  Name = NSC 250429
REMARK  3 active torsions:
REMARK  status: ('A' for Active; 'I' for Inactive)
REMARK    1  A    between atoms: C_8  and  C_9
REMARK    2  A    between atoms: C_20  and  C_21
REMARK    3  A    between atoms: C_23  and  O_24
REMARK                            x       y       z     vdW  Elec       q    Type
REMARK                         _______ _______ _______ _____ _____    ______ ____
ROOT
ATOM      1  C   UNL     1      -1.958  -0.313   0.000  0.00  0.00    +0.002 C 
ATOM      2  C   UNL     1      -1.144   0.157   0.000  0.00  0.00    +0.013 C 
ATOM      3  C   UNL     1      -0.328  -0.313   0.000  0.00  0.00    +0.040 C 
ATOM      4  C   UNL     1      -0.550   0.560   0.000  0.00  0.00    +0.242 C 
ATOM      5  O   UNL     1      -1.111  -0.832   0.000  0.00  0.00    -0.464 OA
ATOM      6  C   UNL     1      -2.091  -2.119   0.000  0.00  0.00    +0.313 C 
ATOM      7  O   UNL     1      -2.696  -2.468   0.000  0.00  0.00    -0.250 OA
ATOM      8  C   UNL     1      -1.144  -1.723   0.000  0.00  0.00    +0.071 C 
ATOM      9  C   UNL     1      -0.957  -2.236   0.000  0.00  0.00    +0.023 C 
ATOM     10  C   UNL     1       0.486   0.157   0.000  0.00  0.00    +0.083 C 
ATOM     11  C   UNL     1      -0.274   0.710   0.000  0.00  0.00    +0.039 C 
ATOM     12  C   UNL     1       0.016   1.603   0.000  0.00  0.00    +0.049 C 
ATOM     13  C   UNL     1       0.956   1.603   0.000  0.00  0.00    +0.169 C 
ATOM     14  C   UNL     1       0.666   2.498   0.000  0.00  0.00    +0.340 C 
ATOM     15  O   UNL     1       0.089   2.981   0.000  0.00  0.00    -0.248 OA
ATOM     16  O   UNL     1       1.426   3.050   0.000  0.00  0.00    -0.463 OA
ATOM     17  C   UNL     1       2.187   2.498   0.000  0.00  0.00    +0.235 C 
ATOM     18  C   UNL     1       1.896   1.603   0.000  0.00  0.00    +0.087 C 
ATOM     19  O   UNL     1       1.246   0.710   0.000  0.00  0.00    -0.355 OA
ATOM     20  C   UNL     1       1.300  -0.313   0.000  0.00  0.00    +0.021 C 
ATOM     21  C   UNL     1       1.996  -0.060   0.000  0.00  0.00    +0.010 C 
ATOM     22  C   UNL     1       1.300  -1.253   0.000  0.00  0.00    +0.037 C 
ATOM     23  C   UNL     1       0.486  -1.723   0.000  0.00  0.00    +0.120 C 
ATOM     26  C   UNL     1      -0.328  -1.253   0.000  0.00  0.00    +0.046 C 
ATOM     27  C   UNL     1      -1.958  -1.253   0.000  0.00  0.00    +0.018 C 
ENDROOT
BRANCH  23  24
ATOM     24  O   UNL     1       0.486  -2.264   0.000  0.00  0.00    -0.391 OA
ATOM     25  H   UNL     1      -0.354  -2.749   0.000  0.00  0.00    +0.210 HD
ENDBRANCH  23  24
TORSDOF 1