REMARK  Name = NSC 785178
REMARK  4 active torsions:
REMARK  status: ('A' for Active; 'I' for Inactive)
REMARK    1  A    between atoms: C_10  and  O_11
REMARK    2  A    between atoms: O_11  and  C_12
REMARK    3  A    between atoms: C_13  and  O_14
REMARK    4  A    between atoms: N_20  and  C_21
REMARK                            x       y       z     vdW  Elec       q    Type
REMARK                         _______ _______ _______ _____ _____    ______ ____
ROOT
ATOM      1  C   UNL     1      -0.886  11.942   0.000  0.00  0.00    +0.053 A 
ATOM      2  C   UNL     1      -2.186  11.194   0.000  0.00  0.00    +0.167 A 
ATOM      3  O   UNL     1      -3.612  11.659   0.000  0.00  0.00    -0.453 OA
ATOM      4  C   UNL     1      -4.495  10.447   0.000  0.00  0.00    +0.466 C 
ATOM      5  O   UNL     1      -3.615   9.232   0.000  0.00  0.00    -0.452 OA
ATOM      6  C   UNL     1      -2.187   9.694   0.000  0.00  0.00    +0.174 A 
ATOM      7  C   UNL     1      -0.889   8.942   0.000  0.00  0.00    +0.033 A 
ATOM      8  C   UNL     1      -0.891   7.442   0.000  0.00  0.00    -0.007 A 
ATOM      9  C   UNL     1      -2.191   6.694   0.000  0.00  0.00    +0.058 A 
ATOM     10  C   UNL     1      -2.193   5.194   0.000  0.00  0.00    +0.162 A 
ATOM     13  C   UNL     1      -0.895   4.442   0.000  0.00  0.00    +0.159 A 
ATOM     16  C   UNL     1       0.405   5.191   0.000  0.00  0.00    +0.053 A 
ATOM     17  C   UNL     1       0.407   6.691   0.000  0.00  0.00    -0.034 A 
ATOM     18  C   UNL     1       1.707   7.439   0.000  0.00  0.00    +0.059 C 
ATOM     19  C   UNL     1       1.709   8.939   0.000  0.00  0.00    +0.092 C 
ATOM     20  N   UNL     1       3.009   9.688   0.000  0.00  0.00    -0.298 NA
ATOM     21  C   UNL     1       4.307   8.936   0.000  0.00  0.00    +0.105 C 
ATOM     22  C   UNL     1       3.011  11.188   0.000  0.00  0.00    +0.089 C 
ATOM     23  C   UNL     1       1.712  11.939   0.000  0.00  0.00    +0.051 C 
ATOM     24  C   UNL     1       0.411   9.691   0.000  0.00  0.00    -0.015 A 
ATOM     25  C   UNL     1       0.412  11.191   0.000  0.00  0.00    -0.037 A 
ENDROOT
BRANCH  10  11
ATOM     11  O   UNL     1      -3.493   4.445   0.000  0.00  0.00    -0.491 OA
ATOM     12  C   UNL     1      -4.791   5.197   0.000  0.00  0.00    +0.277 C 
ENDBRANCH  10  11
BRANCH  13  14
ATOM     14  O   UNL     1      -0.896   2.942   0.000  0.00  0.00    -0.503 OA
ATOM     15  H   UNL     1      -1.709   2.475   0.000  0.00  0.00    +0.292 HD
ENDBRANCH  13  14
TORSDOF 2