REMARK  Name = NSC 99792
REMARK  1 active torsions:
REMARK  status: ('A' for Active; 'I' for Inactive)
REMARK    1  A    between atoms: C_21  and  O_22
REMARK                            x       y       z     vdW  Elec       q    Type
REMARK                         _______ _______ _______ _____ _____    ______ ____
ROOT
ATOM      1  O   UNL     1       4.949   0.752   0.000  0.00  0.00    -0.275 OA
ATOM      2  C   UNL     1       5.753   2.025   0.000  0.00  0.00    +0.223 C 
ATOM      3  C   UNL     1       7.103   1.977   0.000  0.00  0.00    +0.128 C 
ATOM      4  C   UNL     1       7.811   3.209   0.000  0.00  0.00    +0.133 C 
ATOM      5  C   UNL     1       7.162   4.372   0.000  0.00  0.00    +0.047 C 
ATOM      6  C   UNL     1       5.771   4.442   0.000  0.00  0.00    +0.102 C 
ATOM      7  C   UNL     1       5.177   5.539   0.000  0.00  0.00    +0.060 C 
ATOM      8  C   UNL     1       3.618   5.253   0.000  0.00  0.00    -0.014 A 
ATOM      9  C   UNL     1       2.243   6.052   0.000  0.00  0.00    +0.006 A 
ATOM     10  C   UNL     1       0.867   5.253   0.000  0.00  0.00    +0.000 A 
ATOM     11  C   UNL     1       0.867   3.690   0.000  0.00  0.00    +0.002 A 
ATOM     12  C   UNL     1       2.243   2.886   0.000  0.00  0.00    +0.024 A 
ATOM     13  C   UNL     1       3.618   3.690   0.000  0.00  0.00    +0.041 A 
ATOM     14  C   UNL     1       3.820   5.876   0.000  0.00  0.00    +0.033 C 
ATOM     15  C   UNL     1       3.699   7.299   0.000  0.00  0.00    +0.088 C 
ATOM     16  N   UNL     1       4.975   7.824   0.000  0.00  0.00    -0.270 NA
ATOM     17  C   UNL     1       7.862   8.194   0.000  0.00  0.00    +0.118 C 
ATOM     18  C   UNL     1       9.131   5.685   0.000  0.00  0.00    -0.054 C 
ATOM     19  C   UNL     1      10.067   4.933   0.000  0.00  0.00    +0.002 C 
ATOM     20  C   UNL     1      10.063   3.730   0.000  0.00  0.00    +0.187 C 
ATOM     21  C   UNL     1       5.856   6.767   0.000  0.00  0.00    +0.132 C 
ATOM     24  C   UNL     1       7.198   6.723   0.000  0.00  0.00    +0.060 C 
ATOM     25  C   UNL     1       7.891   5.513   0.000  0.00  0.00    +0.027 C 
ATOM     26  O   UNL     1       9.076   2.938   0.000  0.00  0.00    -0.372 OA
ATOM     27  N   UNL     1       5.122   3.239   0.000  0.00  0.00    -0.267 N 
ENDROOT
BRANCH  21  22
ATOM     22  O   UNL     1       6.741   7.984   0.000  0.00  0.00    -0.373 OA
ATOM     23  H   UNL     1       7.706   7.882   0.000  0.00  0.00    +0.212 HD
ENDBRANCH  21  22
TORSDOF 1