REMARK  Name = NSC 58368#2
REMARK  16 active torsions:
REMARK  status: ('A' for Active; 'I' for Inactive)
REMARK    1  A    between atoms: C_1  and  C_2
REMARK    2  A    between atoms: C_2  and  C_10
REMARK    3  A    between atoms: C_4  and  C_5
REMARK    4  A    between atoms: C_5  and  C_6
REMARK    5  A    between atoms: C_7  and  C_8
REMARK    6  A    between atoms: C_7  and  C_9
REMARK    7  A    between atoms: C_11  and  O_30
REMARK    8  A    between atoms: C_12  and  O_15
REMARK    9  A    between atoms: O_15  and  C_16
REMARK   10  A    between atoms: C_16  and  C_18
REMARK   11  A    between atoms: C_19  and  C_20
REMARK   12  A    between atoms: C_21  and  C_22
REMARK   13  A    between atoms: C_23  and  C_24
REMARK   14  A    between atoms: C_25  and  C_26
REMARK   15  A    between atoms: C_26  and  O_27
REMARK   16  A    between atoms: O_30  and  C_31
REMARK                            x       y       z     vdW  Elec       q    Type
REMARK                         _______ _______ _______ _____ _____    ______ ____
ROOT
ATOM     10  C   UNL     1       6.088  19.851   0.000  0.00  0.00    +0.090 C 
ATOM     11  C   UNL     1       6.088  18.351   0.000  0.00  0.00    +0.167 C 
ATOM     12  C   UNL     1       4.789  17.601   0.000  0.00  0.00    +0.206 C 
ATOM     13  C   UNL     1       3.490  18.351   0.000  0.00  0.00    +0.050 C 
ATOM     14  C   UNL     1       3.490  19.851   0.000  0.00  0.00    +0.041 C 
ATOM     32  C   UNL     1       4.789  20.601   0.000  0.00  0.00    +0.101 C 
ATOM     33  O   UNL     1       5.539  21.900   0.000  0.00  0.00    -0.368 OA
ATOM     34  C   UNL     1       4.039  21.900   0.000  0.00  0.00    +0.196 C 
ENDROOT
BRANCH  10   2
ATOM      1  C   UNL     1       8.351  19.452   0.000  0.00  0.00    +0.045 C 
ATOM      2  C   UNL     1       7.387  20.601   0.000  0.00  0.00    +0.101 C 
ATOM      3  O   UNL     1       6.874  22.011   0.000  0.00  0.00    -0.364 OA
ATOM      4  C   UNL     1       8.351  21.750   0.000  0.00  0.00    +0.155 C 
BRANCH   4   5
ATOM      5  C   UNL     1       9.761  22.263   0.000  0.00  0.00    +0.061 C 
BRANCH   5   6
ATOM      6  C   UNL     1      10.021  23.740   0.000  0.00  0.00    -0.026 C 
ATOM      7  C   UNL     1      11.431  24.253   0.000  0.00  0.00    -0.080 C 
ATOM      8  C   UNL     1      12.580  23.289   0.000  0.00  0.00    +0.038 C 
ATOM      9  C   UNL     1      11.691  25.731   0.000  0.00  0.00    +0.038 C 
ENDBRANCH   5   6
ENDBRANCH   4   5
ENDBRANCH  10   2
BRANCH  11  30
ATOM     30  O   UNL     1       7.387  17.601   0.000  0.00  0.00    -0.376 OA
ATOM     31  C   UNL     1       7.387  16.101   0.000  0.00  0.00    +0.194 C 
ENDBRANCH  11  30
BRANCH  12  15
ATOM     15  O   UNL     1       4.789  16.101   0.000  0.00  0.00    -0.456 OA
BRANCH  15  16
ATOM     16  C   UNL     1       3.490  15.351   0.000  0.00  0.00    +0.332 C 
ATOM     17  O   UNL     1       2.191  16.101   0.000  0.00  0.00    -0.246 OA
BRANCH  16  18
ATOM     18  C   UNL     1       3.490  13.851   0.000  0.00  0.00    +0.091 C 
ATOM     19  C   UNL     1       2.191  13.101   0.000  0.00  0.00    +0.007 C 
BRANCH  19  20
ATOM     20  C   UNL     1       2.191  11.601   0.000  0.00  0.00    +0.000 C 
ATOM     21  C   UNL     1       0.892  10.851   0.000  0.00  0.00    +0.000 C 
BRANCH  21  22
ATOM     22  C   UNL     1       0.892   9.351   0.000  0.00  0.00    +0.000 C 
ATOM     23  C   UNL     1      -0.407   8.601   0.000  0.00  0.00    +0.000 C 
BRANCH  23  24
ATOM     24  C   UNL     1      -0.407   7.101   0.000  0.00  0.00    +0.007 C 
ATOM     25  C   UNL     1      -1.706   6.351   0.000  0.00  0.00    +0.091 C 
BRANCH  25  26
ATOM     26  C   UNL     1      -1.706   4.851   0.000  0.00  0.00    +0.330 C 
ATOM     29  O   UNL     1      -0.407   4.101   0.000  0.00  0.00    -0.246 OA
BRANCH  26  27
ATOM     27  O   UNL     1      -3.005   4.101   0.000  0.00  0.00    -0.478 OA
ATOM     28  H   UNL     1      -3.005   2.601   0.000  0.00  0.00    +0.295 HD
ENDBRANCH  26  27
ENDBRANCH  25  26
ENDBRANCH  23  24
ENDBRANCH  21  22
ENDBRANCH  19  20
ENDBRANCH  16  18
ENDBRANCH  15  16
ENDBRANCH  12  15
TORSDOF 12