REMARK  Name = NSC 785175
REMARK  6 active torsions:
REMARK  status: ('A' for Active; 'I' for Inactive)
REMARK    1  A    between atoms: C_1  and  O_2
REMARK    2  A    between atoms: C_3  and  O_4
REMARK    3  A    between atoms: O_4  and  C_5
REMARK    4  A    between atoms: N_12  and  C_13
REMARK    5  A    between atoms: C_20  and  O_21
REMARK    6  A    between atoms: O_21  and  C_22
REMARK                            x       y       z     vdW  Elec       q    Type
REMARK                         _______ _______ _______ _____ _____    ______ ____
ROOT
ATOM      1  C   UNL     1      -4.199  -7.620   0.000  0.00  0.00    +0.163 A 
ATOM      4  C   UNL     1      -5.699  -7.620   0.000  0.00  0.00    +0.162 A 
ATOM      7  C   UNL     1      -6.449  -6.321   0.000  0.00  0.00    +0.049 A 
ATOM      8  C   UNL     1      -5.699  -5.022   0.000  0.00  0.00    +0.008 A 
ATOM      9  C   UNL     1      -4.199  -5.022   0.000  0.00  0.00    -0.038 A 
ATOM     10  C   UNL     1      -3.449  -3.723   0.000  0.00  0.00    +0.055 C 
ATOM     11  C   UNL     1      -1.948  -3.723   0.000  0.00  0.00    +0.068 C 
ATOM     12  N   UNL     1      -1.199  -2.424   0.000  0.00  0.00    -0.301 NA
ATOM     13  C   UNL     1       0.101  -1.674   0.000  0.00  0.00    +0.105 C 
ATOM     14  C   UNL     1      -2.699  -2.424   0.000  0.00  0.00    +0.085 C 
ATOM     15  C   UNL     1      -2.699  -5.022   0.000  0.00  0.00    +0.028 C 
ATOM     16  C   UNL     1      -1.948  -6.321   0.000  0.00  0.00    +0.016 C 
ATOM     17  C   UNL     1      -1.198  -7.620   0.000  0.00  0.00    +0.095 C 
ATOM     18  C   UNL     1       0.301  -7.620   0.000  0.00  0.00    +0.198 C 
ATOM     19  O   UNL     1       1.052  -8.919   0.000  0.00  0.00    -0.289 OA
ATOM     20  C   UNL     1       1.052  -6.321   0.000  0.00  0.00    +0.159 C 
ATOM     23  C   UNL     1       0.301  -5.022   0.000  0.00  0.00    +0.028 C 
ATOM     24  C   UNL     1      -1.198  -5.022   0.000  0.00  0.00    +0.044 C 
ATOM     25  C   UNL     1      -3.449  -6.321   0.000  0.00  0.00    +0.008 A 
ENDROOT
BRANCH   1   2
ATOM      2  O   UNL     1      -3.449  -8.919   0.000  0.00  0.00    -0.503 OA
ATOM      3  H   UNL     1      -3.917  -9.731   0.000  0.00  0.00    +0.292 HD
ENDBRANCH   1   2
BRANCH   4   5
ATOM      5  O   UNL     1      -6.449  -8.919   0.000  0.00  0.00    -0.491 OA
ATOM      6  C   UNL     1      -7.949  -8.919   0.000  0.00  0.00    +0.277 C 
ENDBRANCH   4   5
BRANCH  20  21
ATOM     21  O   UNL     1       2.551  -6.321   0.000  0.00  0.00    -0.492 OA
ATOM     22  C   UNL     1       3.301  -7.620   0.000  0.00  0.00    +0.277 C 
ENDBRANCH  20  21
TORSDOF 3