REMARK  Name = NSC 176503
REMARK  9 active torsions:
REMARK  status: ('A' for Active; 'I' for Inactive)
REMARK    1  A    between atoms: O_1  and  C_2
REMARK    2  A    between atoms: O_1  and  C_22
REMARK    3  A    between atoms: C_3  and  C_20
REMARK    4  A    between atoms: C_9  and  C_19
REMARK    5  A    between atoms: C_10  and  O_11
REMARK    6  A    between atoms: C_17  and  C_18
REMARK    7  A    between atoms: C_22  and  C_24
REMARK    8  A    between atoms: C_25  and  C_26
REMARK    9  A    between atoms: C_25  and  C_27
REMARK                            x       y       z     vdW  Elec       q    Type
REMARK                         _______ _______ _______ _____ _____    ______ ____
ROOT
ATOM      2  C   UNL     1       6.537   2.558   0.000  0.00  0.00    +0.198 C 
ATOM      3  C   UNL     1       5.185   1.907   0.000  0.00  0.00    +0.074 C 
ATOM      4  C   UNL     1       4.984   0.421   0.000  0.00  0.00    +0.166 C 
ATOM      5  C   UNL     1       3.508   0.153   0.000  0.00  0.00    +0.043 C 
ATOM      6  C   UNL     1       2.797   1.474   0.000  0.00  0.00    -0.019 C 
ATOM      7  O   UNL     1       6.068  -0.616   0.000  0.00  0.00    -0.292 OA
ATOM      8  C   UNL     1       3.834   2.558   0.000  0.00  0.00    +0.034 C 
ATOM      9  C   UNL     1       3.500   4.021   0.000  0.00  0.00    +0.026 C 
ATOM     10  C   UNL     1       4.435   5.193   0.000  0.00  0.00    +0.159 C 
ATOM     13  C   UNL     1       5.935   5.193   0.000  0.00  0.00    +0.212 C 
ATOM     14  O   UNL     1       6.762   6.445   0.000  0.00  0.00    -0.458 OA
ATOM     15  C   UNL     1       8.208   6.046   0.000  0.00  0.00    +0.311 C 
ATOM     16  O   UNL     1       9.380   6.981   0.000  0.00  0.00    -0.251 OA
ATOM     17  C   UNL     1       8.275   4.548   0.000  0.00  0.00    +0.105 C 
ATOM     18  C   UNL     1       9.527   3.721   0.000  0.00  0.00    +0.020 C 
ATOM     19  C   UNL     1       2.038   4.354   0.000  0.00  0.00    +0.011 C 
ATOM     20  C   UNL     1       6.399   1.026   0.000  0.00  0.00    +0.024 C 
ATOM     21  C   UNL     1       6.870   4.021   0.000  0.00  0.00    +0.087 C 
ENDROOT
BRANCH  10  11
ATOM     11  O   UNL     1       3.784   6.545   0.000  0.00  0.00    -0.388 OA
ATOM     12  H   UNL     1       2.289   6.657   0.000  0.00  0.00    +0.210 HD
ENDBRANCH  10  11
BRANCH   2   1
ATOM      1  O   UNL     1       8.472   1.015   0.000  0.00  0.00    -0.457 OA
BRANCH   1  22
ATOM     22  C   UNL     1       9.868   1.563   0.000  0.00  0.00    +0.332 C 
ATOM     23  O   UNL     1      10.092   3.046   0.000  0.00  0.00    -0.246 OA
BRANCH  22  24
ATOM     24  C   UNL     1      11.041   0.628   0.000  0.00  0.00    +0.090 C 
ATOM     25  C   UNL     1      12.437   1.176   0.000  0.00  0.00    -0.069 C 
ATOM     26  C   UNL     1      12.661   2.659   0.000  0.00  0.00    +0.039 C 
ATOM     27  C   UNL     1      13.610   0.241   0.000  0.00  0.00    +0.039 C 
ENDBRANCH  22  24
ENDBRANCH   1  22
ENDBRANCH   2   1
TORSDOF 4