REMARK  Name = NSC 99791
REMARK  2 active torsions:
REMARK  status: ('A' for Active; 'I' for Inactive)
REMARK    1  A    between atoms: C_13  and  C_14
REMARK    2  A    between atoms: C_14  and  O_15
REMARK                            x       y       z     vdW  Elec       q    Type
REMARK                         _______ _______ _______ _____ _____    ______ ____
ROOT
ATOM      1  O   UNL     1      -1.642 -10.344   0.000  0.00  0.00    -0.275 OA
ATOM      2  C   UNL     1      -1.642  -8.844   0.000  0.00  0.00    +0.224 C 
ATOM      3  C   UNL     1      -2.941  -8.094   0.000  0.00  0.00    +0.123 C 
ATOM      4  C   UNL     1      -2.941  -6.594   0.000  0.00  0.00    -0.016 C 
ATOM      5  C   UNL     1      -1.642  -5.844   0.000  0.00  0.00    -0.044 C 
ATOM      6  C   UNL     1      -0.343  -6.594   0.000  0.00  0.00    +0.120 C 
ATOM      7  C   UNL     1       0.956  -5.844   0.000  0.00  0.00    +0.037 C 
ATOM      8  C   UNL     1       2.382  -6.308   0.000  0.00  0.00    +0.030 C 
ATOM      9  C   UNL     1       3.264  -5.094   0.000  0.00  0.00    +0.086 C 
ATOM     10  N   UNL     1       2.382  -3.881   0.000  0.00  0.00    -0.295 NA
ATOM     11  C   UNL     1       2.071  -5.348   0.000  0.00  0.00    +0.116 C 
ATOM     12  C   UNL     1       0.644  -5.812   0.000  0.00  0.00    -0.050 C 
ATOM     13  C   UNL     1       0.836  -4.324   0.000  0.00  0.00    +0.002 C 
ATOM     17  C   UNL     1       2.017  -6.905   0.000  0.00  0.00    -0.016 A 
ATOM     18  C   UNL     1       3.517  -6.905   0.000  0.00  0.00    +0.006 A 
ATOM     19  C   UNL     1       4.266  -8.204   0.000  0.00  0.00    +0.000 A 
ATOM     20  C   UNL     1       3.517  -9.503   0.000  0.00  0.00    +0.002 A 
ATOM     21  C   UNL     1       2.017  -9.503   0.000  0.00  0.00    +0.024 A 
ATOM     22  C   UNL     1       1.267  -8.204   0.000  0.00  0.00    +0.041 A 
ATOM     23  C   UNL     1       0.956  -4.344   0.000  0.00  0.00    +0.071 C 
ATOM     24  C   UNL     1      -0.343  -3.594   0.000  0.00  0.00    +0.032 C 
ATOM     25  C   UNL     1      -1.642  -4.344   0.000  0.00  0.00    +0.045 C 
ATOM     26  N   UNL     1      -0.343  -8.094   0.000  0.00  0.00    -0.263 N 
ENDROOT
BRANCH  13  14
ATOM     14  C   UNL     1       3.120  -3.371   0.000  0.00  0.00    +0.183 C 
BRANCH  14  15
ATOM     15  O   UNL     1       3.312  -1.883   0.000  0.00  0.00    -0.391 OA
ATOM     16  H   UNL     1       4.207  -1.509   0.000  0.00  0.00    +0.210 HD
ENDBRANCH  14  15
ENDBRANCH  13  14
TORSDOF 2