REMARK  Name = NSC 2802
REMARK  7 active torsions:
REMARK  status: ('A' for Active; 'I' for Inactive)
REMARK    1  A    between atoms: C_1  and  C_2
REMARK    2  A    between atoms: C_2  and  C_3
REMARK    3  A    between atoms: C_3  and  O_4
REMARK    4  A    between atoms: C_7  and  C_8
REMARK    5  A    between atoms: C_8  and  O_9
REMARK    6  A    between atoms: C_11  and  C_12
REMARK    7  A    between atoms: C_11  and  C_13
REMARK                            x       y       z     vdW  Elec       q    Type
REMARK                         _______ _______ _______ _____ _____    ______ ____
ROOT
ATOM      1  C   UNL     1      -1.733  -4.631   0.000  0.00  0.00    +0.007 C 
ATOM      7  C   UNL     1      -3.233  -4.631   0.000  0.00  0.00    +0.019 C 
ATOM      8  C   UNL     1      -3.233  -6.131   0.000  0.00  0.00    +0.104 C 
ATOM     13  C   UNL     1      -1.733  -6.131   0.000  0.00  0.00    -0.019 C 
ATOM     14  C   UNL     1      -0.233  -6.131   0.000  0.00  0.00    +0.012 C 
ATOM     15  C   UNL     1      -1.733  -7.631   0.000  0.00  0.00    +0.012 C 
ENDROOT
BRANCH   8   9
ATOM      9  C   UNL     1      -4.294  -7.191   0.000  0.00  0.00    +0.308 C 
ATOM     12  O   UNL     1      -5.743  -6.803   0.000  0.00  0.00    -0.251 OA
BRANCH   9  10
ATOM     10  O   UNL     1      -3.906  -8.640   0.000  0.00  0.00    -0.480 OA
ATOM     11  H   UNL     1      -4.568  -9.303   0.000  0.00  0.00    +0.295 HD
ENDBRANCH   9  10
ENDBRANCH   8   9
BRANCH   1   2
ATOM      2  C   UNL     1      -0.672  -3.570   0.000  0.00  0.00    +0.124 C 
BRANCH   2   3
ATOM      3  C   UNL     1       0.776  -3.958   0.000  0.00  0.00    +0.305 C 
ATOM      6  O   UNL     1       1.837  -2.898   0.000  0.00  0.00    -0.251 OA
BRANCH   3   4
ATOM      4  O   UNL     1       1.165  -5.407   0.000  0.00  0.00    -0.481 OA
ATOM      5  H   UNL     1       0.502  -6.070   0.000  0.00  0.00    +0.295 HD
ENDBRANCH   3   4
ENDBRANCH   2   3
ENDBRANCH   1   2
TORSDOF 5