REMARK  Name = NSC 824
REMARK  7 active torsions:
REMARK  status: ('A' for Active; 'I' for Inactive)
REMARK    1  A    between atoms: C_1  and  C_2
REMARK    2  A    between atoms: C_1  and  C_5
REMARK    3  A    between atoms: C_2  and  O_3
REMARK    4  A    between atoms: C_8  and  C_9
REMARK    5  A    between atoms: C_9  and  O_10
REMARK    6  A    between atoms: C_12  and  C_13
REMARK    7  A    between atoms: C_12  and  C_14
REMARK                            x       y       z     vdW  Elec       q    Type
REMARK                         _______ _______ _______ _____ _____    ______ ____
ROOT
ATOM      1  C   UNL     1      -0.958   0.864   0.000  0.00  0.00    +0.071 C 
ATOM      6  C   UNL     1      -2.040   1.903   0.000  0.00  0.00    +0.023 C 
ATOM      7  C   UNL     1      -2.104  -0.104   0.000  0.00  0.00    +0.019 C 
ATOM      8  C   UNL     1      -1.539  -1.493   0.000  0.00  0.00    +0.016 C 
ATOM      9  C   UNL     1      -0.043  -1.384   0.000  0.00  0.00    +0.104 C 
ATOM     14  C   UNL     1       0.316   0.072   0.000  0.00  0.00    -0.007 C 
ATOM     15  C   UNL     1       0.970   1.422   0.000  0.00  0.00    +0.013 C 
ATOM     16  C   UNL     1       1.727  -0.437   0.000  0.00  0.00    +0.013 C 
ENDROOT
BRANCH   1   2
ATOM      2  C   UNL     1      -0.258   2.190   0.000  0.00  0.00    +0.311 C 
ATOM      5  O   UNL     1      -1.056   3.460   0.000  0.00  0.00    -0.250 OA
BRANCH   2   3
ATOM      3  O   UNL     1       1.241   2.246   0.000  0.00  0.00    -0.480 OA
ATOM      4  H   UNL     1       1.740   1.453   0.000  0.00  0.00    +0.295 HD
ENDBRANCH   2   3
ENDBRANCH   1   2
BRANCH   9  10
ATOM     10  C   UNL     1       0.925  -2.531   0.000  0.00  0.00    +0.308 C 
ATOM     13  O   UNL     1       2.401  -2.266   0.000  0.00  0.00    -0.251 OA
BRANCH  10  11
ATOM     11  O   UNL     1       0.416  -3.942   0.000  0.00  0.00    -0.480 OA
ATOM     12  H   UNL     1      -0.507  -4.107   0.000  0.00  0.00    +0.295 HD
ENDBRANCH  10  11
ENDBRANCH   9  10
TORSDOF 4