REMARK  Name = NSC 320301
REMARK  10 active torsions:
REMARK  status: ('A' for Active; 'I' for Inactive)
REMARK    1  A    between atoms: C_2  and  N_3
REMARK    2  A    between atoms: C_4  and  C_5
REMARK    3  A    between atoms: C_14  and  S_15
REMARK    4  A    between atoms: S_15  and  C_16
REMARK    5  A    between atoms: C_20  and  O_21
REMARK    6  A    between atoms: O_21  and  C_22
REMARK    7  A    between atoms: C_23  and  O_24
REMARK    8  A    between atoms: O_24  and  C_25
REMARK    9  A    between atoms: C_26  and  O_27
REMARK   10  A    between atoms: O_27  and  C_28
REMARK                            x       y       z     vdW  Elec       q    Type
REMARK                         _______ _______ _______ _____ _____    ______ ____
ROOT
ATOM      1  C   UNL     1      -5.973  -0.819   0.000  0.00  0.00    +0.104 C 
ATOM     10  C   UNL     1      -7.145  -1.754   0.000  0.00  0.00    -0.016 A 
ATOM     11  C   UNL     1      -8.608  -1.420   0.000  0.00  0.00    -0.009 A 
ATOM     12  C   UNL     1      -9.781  -2.356   0.000  0.00  0.00    +0.010 A 
ATOM     13  C   UNL     1      -9.781  -3.856   0.000  0.00  0.00    +0.019 A 
ATOM     14  C   UNL     1      -8.608  -4.791   0.000  0.00  0.00    +0.054 A 
ATOM     17  C   UNL     1      -7.145  -4.457   0.000  0.00  0.00    +0.193 A 
ATOM     18  O   UNL     1      -6.210  -5.630   0.000  0.00  0.00    -0.287 OA
ATOM     19  C   UNL     1      -9.259  -0.069   0.000  0.00  0.00    +0.031 A 
ATOM     20  C   UNL     1     -10.754  -0.181   0.000  0.00  0.00    +0.173 A 
ATOM     23  C   UNL     1     -11.599   1.058   0.000  0.00  0.00    +0.204 A 
ATOM     26  C   UNL     1     -10.949   2.410   0.000  0.00  0.00    +0.165 A 
ATOM     29  C   UNL     1      -9.453   2.522   0.000  0.00  0.00    +0.054 A 
ATOM     30  C   UNL     1      -8.608   1.283   0.000  0.00  0.00    -0.032 A 
ATOM     31  C   UNL     1      -7.145   1.616   0.000  0.00  0.00    +0.038 C 
ATOM     32  C   UNL     1      -6.495  -3.106   0.000  0.00  0.00    +0.058 A 
ATOM     33  C   UNL     1      -5.973   0.681   0.000  0.00  0.00    +0.032 C 
ENDROOT
BRANCH   1   2
ATOM      2  N   UNL     1      -5.322  -2.170   0.000  0.00  0.00    -0.301 N 
ATOM      3  H   UNL     1      -5.803  -3.029   0.000  0.00  0.00    +0.150 HD
ATOM      4  C   UNL     1      -3.829  -2.021   0.000  0.00  0.00    +0.318 C 
ATOM      9  O   UNL     1      -3.212  -0.654   0.000  0.00  0.00    -0.266 OA
BRANCH   4   5
ATOM      5  C   UNL     1      -2.954  -3.239   0.000  0.00  0.00    +0.469 C 
ATOM      6  F   UNL     1      -2.078  -4.457   0.000  0.00  0.00    -0.162 F 
ATOM      7  F   UNL     1      -1.736  -2.363   0.000  0.00  0.00    -0.162 F 
ATOM      8  F   UNL     1      -4.172  -4.115   0.000  0.00  0.00    -0.162 F 
ENDBRANCH   4   5
ENDBRANCH   1   2
BRANCH  14  15
ATOM     15  S   UNL     1      -8.942  -6.253   0.000  0.00  0.00    -0.125 S 
ATOM     16  C   UNL     1     -10.375  -6.695   0.000  0.00  0.00    +0.090 C 
ENDBRANCH  14  15
BRANCH  20  21
ATOM     21  O   UNL     1     -11.405  -1.533   0.000  0.00  0.00    -0.491 OA
ATOM     22  C   UNL     1     -12.901  -1.645   0.000  0.00  0.00    +0.277 C 
ENDBRANCH  20  21
BRANCH  23  24
ATOM     24  O   UNL     1     -13.095   0.946   0.000  0.00  0.00    -0.488 OA
ATOM     25  C   UNL     1     -13.940   2.186   0.000  0.00  0.00    +0.277 C 
ENDBRANCH  23  24
BRANCH  26  27
ATOM     27  O   UNL     1     -11.794   3.649   0.000  0.00  0.00    -0.491 OA
ATOM     28  C   UNL     1     -13.289   3.537   0.000  0.00  0.00    +0.277 C 
ENDBRANCH  26  27
TORSDOF 6