REMARK  Name = NSC 172946
REMARK  9 active torsions:
REMARK  status: ('A' for Active; 'I' for Inactive)
REMARK    1  A    between atoms: C_5  and  N_6
REMARK    2  A    between atoms: C_7  and  C_8
REMARK    3  A    between atoms: C_14  and  O_15
REMARK    4  A    between atoms: O_15  and  C_16
REMARK    5  A    between atoms: C_17  and  O_18
REMARK    6  A    between atoms: O_18  and  C_19
REMARK    7  A    between atoms: C_20  and  O_21
REMARK    8  A    between atoms: C_26  and  O_27
REMARK    9  A    between atoms: O_27  and  C_28
REMARK                            x       y       z     vdW  Elec       q    Type
REMARK                         _______ _______ _______ _____ _____    ______ ____
ROOT
ATOM      1  O   UNL     1      -3.914  -3.018   0.000  0.00  0.00    -0.284 OA
ATOM      2  C   UNL     1      -2.932  -1.884   0.000  0.00  0.00    +0.221 A 
ATOM      3  C   UNL     1      -1.484  -2.277   0.000  0.00  0.00    +0.060 A 
ATOM      4  C   UNL     1      -0.275  -1.390   0.000  0.00  0.00    -0.016 A 
ATOM      5  C   UNL     1       0.859  -2.372   0.000  0.00  0.00    +0.104 C 
ATOM     11  C   UNL     1       2.334  -2.098   0.000  0.00  0.00    +0.032 C 
ATOM     12  C   UNL     1       3.039  -0.774   0.000  0.00  0.00    +0.038 C 
ATOM     13  C   UNL     1       2.443   0.603   0.000  0.00  0.00    -0.032 A 
ATOM     14  C   UNL     1       0.995   0.996   0.000  0.00  0.00    +0.031 A 
ATOM     15  C   UNL     1       0.612   2.446   0.000  0.00  0.00    +0.173 A 
ATOM     18  C   UNL     1       1.676   3.503   0.000  0.00  0.00    +0.204 A 
ATOM     21  C   UNL     1       3.123   3.111   0.000  0.00  0.00    +0.162 A 
ATOM     24  C   UNL     1       3.507   1.661   0.000  0.00  0.00    +0.053 A 
ATOM     25  C   UNL     1      -0.214   0.109   0.000  0.00  0.00    -0.009 A 
ATOM     26  C   UNL     1      -1.348   1.091   0.000  0.00  0.00    +0.012 A 
ATOM     27  C   UNL     1      -2.823   0.816   0.000  0.00  0.00    +0.050 A 
ATOM     28  C   UNL     1      -3.528  -0.508   0.000  0.00  0.00    +0.167 A 
ENDROOT
BRANCH   5   6
ATOM      6  N   UNL     1       0.466  -3.820   0.000  0.00  0.00    -0.309 N 
ATOM      7  H   UNL     1      -0.485  -4.072   0.000  0.00  0.00    +0.149 HD
ATOM      8  C   UNL     1       1.524  -4.884   0.000  0.00  0.00    +0.210 C 
ATOM      9  C   UNL     1       1.131  -6.331   0.000  0.00  0.00    +0.109 C 
ATOM     10  O   UNL     1       2.974  -4.500   0.000  0.00  0.00    -0.276 OA
ENDBRANCH   5   6
BRANCH  15  16
ATOM     16  O   UNL     1      -0.836   2.838   0.000  0.00  0.00    -0.491 OA
ATOM     17  C   UNL     1      -1.900   1.781   0.000  0.00  0.00    +0.277 C 
ENDBRANCH  15  16
BRANCH  18  19
ATOM     19  O   UNL     1       1.292   4.953   0.000  0.00  0.00    -0.488 OA
ATOM     20  C   UNL     1      -0.156   5.346   0.000  0.00  0.00    +0.277 C 
ENDBRANCH  18  19
BRANCH  21  22
ATOM     22  O   UNL     1       4.187   4.168   0.000  0.00  0.00    -0.503 OA
ATOM     23  H   UNL     1       5.091   3.923   0.000  0.00  0.00    +0.292 HD
ENDBRANCH  21  22
BRANCH  28  29
ATOM     29  O   UNL     1      -5.027  -0.447   0.000  0.00  0.00    -0.491 OA
ATOM     30  C   UNL     1      -5.723   0.881   0.000  0.00  0.00    +0.277 C 
ENDBRANCH  28  29
TORSDOF 5