REMARK  Name = NSC 85235
REMARK  2 active torsions:
REMARK  status: ('A' for Active; 'I' for Inactive)
REMARK    1  A    between atoms: C_6  and  C_7
REMARK    2  A    between atoms: C_13  and  C_14
REMARK                            x       y       z     vdW  Elec       q    Type
REMARK                         _______ _______ _______ _____ _____    ______ ____
ROOT
ATOM      1  C   UNL     1      -2.410  -1.478   0.000  0.00  0.00    +0.036 C 
ATOM      2  C   UNL     1      -3.908  -1.556   0.000  0.00  0.00    +0.020 C 
ATOM      3  C   UNL     1      -1.466  -2.643   0.000  0.00  0.00    +0.335 C 
ATOM      4  O   UNL     1      -0.065  -2.105   0.000  0.00  0.00    -0.456 OA
ATOM      5  C   UNL     1      -0.144  -0.608   0.000  0.00  0.00    +0.198 C 
ATOM      6  C   UNL     1       1.063   0.283   0.000  0.00  0.00    +0.074 C 
ATOM      7  C   UNL     1       1.276  -1.202   0.000  0.00  0.00    +0.024 C 
ATOM      8  C   UNL     1       2.471  -0.233   0.000  0.00  0.00    +0.166 C 
ATOM      9  O   UNL     1       2.881  -1.676   0.000  0.00  0.00    -0.292 OA
ATOM     10  C   UNL     1       3.398   0.947   0.000  0.00  0.00    +0.043 C 
ATOM     11  C   UNL     1       2.562   2.192   0.000  0.00  0.00    -0.019 C 
ATOM     12  C   UNL     1       1.119   1.782   0.000  0.00  0.00    +0.032 C 
ATOM     13  C   UNL     1      -0.018   2.761   0.000  0.00  0.00    -0.006 C 
ATOM     14  C   UNL     1       0.370   4.210   0.000  0.00  0.00    +0.008 C 
ATOM     15  C   UNL     1      -1.492   2.482   0.000  0.00  0.00    +0.004 C 
ATOM     16  C   UNL     1      -2.193   1.155   0.000  0.00  0.00    +0.012 C 
ATOM     17  O   UNL     1      -1.854  -4.092   0.000  0.00  0.00    -0.245 OA
ATOM     18  C   UNL     1      -1.593  -0.219   0.000  0.00  0.00    +0.067 C 
ENDROOT
TORSDOF 0