REMARK  Name = NSC 169517
REMARK  5 active torsions:
REMARK  status: ('A' for Active; 'I' for Inactive)
REMARK    1  A    between atoms: C_4  and  O_5
REMARK    2  A    between atoms: C_7  and  O_8
REMARK    3  A    between atoms: C_12  and  C_13
REMARK    4  A    between atoms: C_16  and  O_17
REMARK    5  A    between atoms: O_17  and  C_18
REMARK                            x       y       z     vdW  Elec       q    Type
REMARK                         _______ _______ _______ _____ _____    ______ ____
ROOT
ATOM      1  O   UNL     1     -12.716  -1.025   0.000  0.00  0.00    -0.292 OA
ATOM      2  C   UNL     1     -11.417  -0.275   0.000  0.00  0.00    +0.174 C 
ATOM      3  C   UNL     1     -11.417   1.226   0.000  0.00  0.00    +0.101 A 
ATOM      4  C   UNL     1     -12.716   1.976   0.000  0.00  0.00    +0.134 A 
ATOM      7  C   UNL     1     -12.716   3.475   0.000  0.00  0.00    +0.091 A 
ATOM      8  C   UNL     1     -11.417   4.226   0.000  0.00  0.00    +0.124 A 
ATOM     11  C   UNL     1     -10.118   3.475   0.000  0.00  0.00    +0.092 A 
ATOM     12  C   UNL     1     -10.118   1.976   0.000  0.00  0.00    +0.139 A 
ATOM     13  O   UNL     1      -8.819   1.226   0.000  0.00  0.00    -0.483 OA
ATOM     14  C   UNL     1      -8.819  -0.275   0.000  0.00  0.00    +0.215 C 
ATOM     25  C   UNL     1     -10.118  -1.025   0.000  0.00  0.00    +0.129 C 
ENDROOT
BRANCH  14  15
ATOM     15  C   UNL     1      -7.520  -1.025   0.000  0.00  0.00    +0.044 C 
ATOM     16  C   UNL     1      -7.520  -2.525   0.000  0.00  0.00    +0.065 C 
ATOM     17  C   UNL     1      -6.221  -3.275   0.000  0.00  0.00    +0.221 C 
ATOM     18  C   UNL     1      -4.922  -2.525   0.000  0.00  0.00    +0.170 C 
ATOM     21  C   UNL     1      -4.922  -1.025   0.000  0.00  0.00    +0.100 C 
ATOM     22  O   UNL     1      -6.221  -4.774   0.000  0.00  0.00    -0.284 OA
ATOM     23  C   UNL     1      -6.221  -0.275   0.000  0.00  0.00    +0.189 C 
ATOM     24  O   UNL     1      -6.221   1.226   0.000  0.00  0.00    -0.287 OA
BRANCH  18  19
ATOM     19  O   UNL     1      -3.623  -3.275   0.000  0.00  0.00    -0.491 OA
ATOM     20  C   UNL     1      -2.324  -2.525   0.000  0.00  0.00    +0.277 C 
ENDBRANCH  18  19
ENDBRANCH  14  15
BRANCH   4   5
ATOM      5  O   UNL     1     -14.015   1.226   0.000  0.00  0.00    -0.506 OA
ATOM      6  H   UNL     1     -14.826   1.694   0.000  0.00  0.00    +0.292 HD
ENDBRANCH   4   5
BRANCH   8   9
ATOM      9  O   UNL     1     -11.417   5.726   0.000  0.00  0.00    -0.507 OA
ATOM     10  H   UNL     1     -10.605   6.194   0.000  0.00  0.00    +0.292 HD
ENDBRANCH   8   9
TORSDOF 4