REMARK  Name = NSC 72917
REMARK  4 active torsions:
REMARK  status: ('A' for Active; 'I' for Inactive)
REMARK    1  A    between atoms: C_10  and  O_11
REMARK    2  A    between atoms: O_11  and  C_12
REMARK    3  A    between atoms: C_13  and  O_14
REMARK    4  A    between atoms: O_14  and  C_15
REMARK                            x       y       z     vdW  Elec       q    Type
REMARK                         _______ _______ _______ _____ _____    ______ ____
ROOT
ATOM      1  O   UNL     1       6.143   0.752   0.000  0.00  0.00    -0.275 OA
ATOM      2  C   UNL     1       6.947   2.025   0.000  0.00  0.00    +0.223 C 
ATOM      3  C   UNL     1       8.297   1.977   0.000  0.00  0.00    +0.128 C 
ATOM      4  C   UNL     1       9.005   3.209   0.000  0.00  0.00    +0.132 C 
ATOM      5  C   UNL     1       8.356   4.372   0.000  0.00  0.00    +0.043 C 
ATOM      6  C   UNL     1       6.965   4.442   0.000  0.00  0.00    +0.099 C 
ATOM      7  C   UNL     1       6.371   5.539   0.000  0.00  0.00    +0.034 C 
ATOM      8  C   UNL     1       4.812   5.253   0.000  0.00  0.00    -0.013 A 
ATOM      9  C   UNL     1       3.437   6.052   0.000  0.00  0.00    +0.055 A 
ATOM     10  C   UNL     1       2.061   5.253   0.000  0.00  0.00    +0.162 A 
ATOM     13  C   UNL     1       2.061   3.690   0.000  0.00  0.00    +0.163 A 
ATOM     16  C   UNL     1       3.437   2.886   0.000  0.00  0.00    +0.073 A 
ATOM     17  C   UNL     1       4.812   3.690   0.000  0.00  0.00    +0.044 A 
ATOM     18  C   UNL     1       5.014   5.876   0.000  0.00  0.00    +0.030 C 
ATOM     19  C   UNL     1       4.893   7.299   0.000  0.00  0.00    +0.085 C 
ATOM     20  N   UNL     1       6.169   7.824   0.000  0.00  0.00    -0.298 NA
ATOM     21  C   UNL     1       9.056   8.194   0.000  0.00  0.00    +0.088 C 
ATOM     22  C   UNL     1      10.325   5.685   0.000  0.00  0.00    +0.009 C 
ATOM     23  C   UNL     1      11.261   4.933   0.000  0.00  0.00    +0.033 C 
ATOM     24  C   UNL     1      11.257   3.730   0.000  0.00  0.00    +0.160 C 
ATOM     25  C   UNL     1       7.050   6.767   0.000  0.00  0.00    +0.069 C 
ATOM     26  C   UNL     1       8.392   6.723   0.000  0.00  0.00    +0.024 C 
ATOM     27  C   UNL     1       9.085   5.513   0.000  0.00  0.00    +0.002 C 
ATOM     28  O   UNL     1      10.270   2.938   0.000  0.00  0.00    -0.376 OA
ATOM     29  N   UNL     1       6.316   3.239   0.000  0.00  0.00    -0.267 N 
ENDROOT
BRANCH  10  11
ATOM     11  O   UNL     1       0.757   6.003   0.000  0.00  0.00    -0.491 OA
ATOM     12  C   UNL     1       0.755   7.508   0.000  0.00  0.00    +0.277 C 
ENDBRANCH  10  11
BRANCH  13  14
ATOM     14  O   UNL     1       0.756   2.941   0.000  0.00  0.00    -0.491 OA
ATOM     15  C   UNL     1       0.752   1.436   0.000  0.00  0.00    +0.277 C 
ENDBRANCH  13  14
TORSDOF 2