REMARK  Name = NSC 785146#2
REMARK  7 active torsions:
REMARK  status: ('A' for Active; 'I' for Inactive)
REMARK    1  A    between atoms: C_1  and  O_2
REMARK    2  A    between atoms: C_1  and  C_4
REMARK    3  A    between atoms: C_4  and  O_5
REMARK    4  A    between atoms: C_4  and  C_6
REMARK    5  A    between atoms: C_6  and  O_7
REMARK    6  A    between atoms: C_6  and  C_8
REMARK    7  A    between atoms: C_8  and  O_9
REMARK                            x       y       z     vdW  Elec       q    Type
REMARK                         _______ _______ _______ _____ _____    ______ ____
ROOT
ATOM      5  C   UNL     1     -12.467 -12.734   0.000  0.00  0.00    +0.262 C 
ENDROOT
BRANCH   5   1
ATOM      1  C   UNL     1     -11.169 -13.486   0.000  0.00  0.00    +0.337 C 
ATOM      4  O   UNL     1     -11.171 -14.986   0.000  0.00  0.00    -0.248 OA
BRANCH   1   2
ATOM      2  O   UNL     1      -9.869 -12.737   0.000  0.00  0.00    -0.479 OA
ATOM      3  H   UNL     1      -9.058 -13.207   0.000  0.00  0.00    +0.295 HD
ENDBRANCH   1   2
ENDBRANCH   5   1
BRANCH   5   6
ATOM      6  O   UNL     1     -12.465 -11.234   0.000  0.00  0.00    -0.378 OA
ATOM      7  H   UNL     1     -11.624 -10.750   0.000  0.00  0.00    +0.211 HD
ENDBRANCH   5   6
BRANCH   5   8
ATOM      8  C   UNL     1     -13.767 -13.482   0.000  0.00  0.00    +0.262 C 
BRANCH   8   9
ATOM      9  O   UNL     1     -13.769 -14.982   0.000  0.00  0.00    -0.378 OA
ATOM     10  H   UNL     1     -14.610 -15.466   0.000  0.00  0.00    +0.211 HD
ENDBRANCH   8   9
BRANCH   8  11
ATOM     11  C   UNL     1     -15.065 -12.731   0.000  0.00  0.00    +0.337 C 
ATOM     14  O   UNL     1     -15.063 -11.231   0.000  0.00  0.00    -0.248 OA
BRANCH  11  12
ATOM     12  O   UNL     1     -16.365 -13.479   0.000  0.00  0.00    -0.479 OA
ATOM     13  H   UNL     1     -17.176 -13.009   0.000  0.00  0.00    +0.295 HD
ENDBRANCH  11  12
ENDBRANCH   8  11
ENDBRANCH   5   8
TORSDOF 7