REMARK  Name = NSC 153858
REMARK  16 active torsions:
REMARK  status: ('A' for Active; 'I' for Inactive)
REMARK    1  A    between atoms: C_4  and  O_5
REMARK    2  A    between atoms: C_8  and  C_9
REMARK    3  A    between atoms: C_11  and  C_12
REMARK    4  A    between atoms: C_13  and  O_34
REMARK    5  A    between atoms: N_16  and  C_17
REMARK    6  A    between atoms: C_20  and  O_21
REMARK    7  A    between atoms: O_21  and  C_22
REMARK    8  A    between atoms: C_26  and  C_27
REMARK    9  A    between atoms: O_34  and  C_35
REMARK   10  A    between atoms: C_35  and  C_37
REMARK   11  A    between atoms: C_37  and  C_38
REMARK   12  A    between atoms: C_37  and  N_40
REMARK   13  A    between atoms: N_40  and  C_41
REMARK   14  A    between atoms: C_42  and  C_43
REMARK   15  A    between atoms: C_47  and  O_48
REMARK   16  A    between atoms: O_48  and  C_49
REMARK                            x       y       z     vdW  Elec       q    Type
REMARK                         _______ _______ _______ _____ _____    ______ ____
ROOT
ATOM      1  O   UNL     1      -0.666   8.871   0.000  0.00  0.00    -0.226 OA
ATOM      2  C   UNL     1       0.814   9.111   0.000  0.00  0.00    +0.403 C 
ATOM      3  N   UNL     1       1.272  10.539   0.000  0.00  0.00    -0.250 N 
ATOM      4  C   UNL     1       2.862   9.989   0.000  0.00  0.00    +0.168 C 
ATOM      7  C   UNL     1       4.081   9.115   0.000  0.00  0.00    +0.103 C 
ATOM      8  C   UNL     1       3.199   7.901   0.000  0.00  0.00    +0.188 C 
ATOM      9  C   UNL     1       4.314   6.898   0.000  0.00  0.00    +0.059 C 
ATOM     10  C   UNL     1       3.432   5.684   0.000  0.00  0.00    +0.014 C 
ATOM     11  C   UNL     1       5.613   6.148   0.000  0.00  0.00    +0.161 C 
ATOM     12  C   UNL     1       6.495   7.361   0.000  0.00  0.00    +0.131 C 
ATOM     13  C   UNL     1       6.338   8.853   0.000  0.00  0.00    +0.048 C 
ATOM     14  C   UNL     1       7.921   7.824   0.000  0.00  0.00    +0.219 C 
ATOM     15  C   UNL     1       9.220   8.575   0.000  0.00  0.00    +0.144 C 
ATOM     16  C   UNL     1      10.712   8.418   0.000  0.00  0.00    +0.223 C 
ATOM     17  N   UNL     1      11.024   9.885   0.000  0.00  0.00    -0.273 N 
ATOM     18  C   UNL     1      12.516   9.728   0.000  0.00  0.00    +0.138 C 
ATOM     19  C   UNL     1      11.024  11.385   0.000  0.00  0.00    +0.058 A 
ATOM     20  C   UNL     1      13.020  10.408   0.000  0.00  0.00    +0.104 A 
ATOM     21  C   UNL     1      13.020  11.908   0.000  0.00  0.00    +0.140 A 
ATOM     24  C   UNL     1      11.906  12.912   0.000  0.00  0.00    +0.051 A 
ATOM     25  C   UNL     1      10.414  12.755   0.000  0.00  0.00    -0.038 A 
ATOM     26  C   UNL     1       9.299  13.759   0.000  0.00  0.00    +0.065 C 
ATOM     27  C   UNL     1       8.000  14.509   0.000  0.00  0.00    -0.068 C 
ATOM     28  C   UNL     1       7.688  15.976   0.000  0.00  0.00    +0.039 C 
ATOM     29  C   UNL     1       7.118  13.296   0.000  0.00  0.00    -0.001 C 
ATOM     30  C   UNL     1       5.692  12.832   0.000  0.00  0.00    -0.002 C 
ATOM     31  C   UNL     1       4.393  12.082   0.000  0.00  0.00    +0.009 C 
ATOM     32 CL   UNL     1      13.814   9.136   0.000  0.00  0.00    -0.078 Cl
ATOM     33  C   UNL     1       9.532  11.542   0.000  0.00  0.00    +0.029 A 
ATOM     34  O   UNL     1      11.594   7.204   0.000  0.00  0.00    -0.275 OA
ATOM     45  O   UNL     1       5.003   7.518   0.000  0.00  0.00    -0.361 OA
ATOM     46  C   UNL     1       3.019  11.480   0.000  0.00  0.00    +0.191 C 
ATOM     49  H   UNL     1       0.602  11.881   0.000  0.00  0.00    +0.155 HD
ATOM     50  O   UNL     1       1.699   7.899   0.000  0.00  0.00    -0.447 OA
ENDROOT
BRANCH   4   5
ATOM      5  O   UNL     1       2.057  11.255   0.000  0.00  0.00    -0.369 OA
ATOM      6  H   UNL     1       2.505  12.115   0.000  0.00  0.00    +0.212 HD
ENDBRANCH   4   5
BRANCH  21  22
ATOM     22  O   UNL     1      14.390  12.519   0.000  0.00  0.00    -0.494 OA
ATOM     23  C   UNL     1      14.547  14.010   0.000  0.00  0.00    +0.277 C 
ENDBRANCH  21  22
BRANCH  46  47
ATOM     47  O   UNL     1       1.808  12.366   0.000  0.00  0.00    -0.371 OA
ATOM     48  C   UNL     1       1.969  13.857   0.000  0.00  0.00    +0.195 C 
ENDBRANCH  46  47
BRANCH  14  35
ATOM     35  O   UNL     1       8.531   6.454   0.000  0.00  0.00    -0.457 OA
BRANCH  35  36
ATOM     36  C   UNL     1       7.649   5.241   0.000  0.00  0.00    +0.328 C 
ATOM     37  O   UNL     1       6.158   5.398   0.000  0.00  0.00    -0.249 OA
BRANCH  36  38
ATOM     38  C   UNL     1       8.259   3.870   0.000  0.00  0.00    +0.181 C 
ATOM     39  C   UNL     1       9.473   2.989   0.000  0.00  0.00    +0.040 C 
BRANCH  38  40
ATOM     40  N   UNL     1       7.181   2.828   0.000  0.00  0.00    -0.292 N 
ATOM     41  C   UNL     1       7.543   1.373   0.000  0.00  0.00    +0.133 C 
ATOM     42  C   UNL     1       5.739   3.242   0.000  0.00  0.00    +0.213 C 
ATOM     43  C   UNL     1       5.376   4.697   0.000  0.00  0.00    +0.109 C 
ATOM     44  O   UNL     1       4.660   2.200   0.000  0.00  0.00    -0.276 OA
ENDBRANCH  38  40
ENDBRANCH  36  38
ENDBRANCH  35  36
ENDBRANCH  14  35
TORSDOF 7