REMARK  Name = NSC 31867
REMARK  12 active torsions:
REMARK  status: ('A' for Active; 'I' for Inactive)
REMARK    1  A    between atoms: C_4  and  O_5
REMARK    2  A    between atoms: C_7  and  C_8
REMARK    3  A    between atoms: C_8  and  C_9
REMARK    4  A    between atoms: C_9  and  C_10
REMARK    5  A    between atoms: C_10  and  C_11
REMARK    6  A    between atoms: C_11  and  C_12
REMARK    7  A    between atoms: C_17  and  O_18
REMARK    8  A    between atoms: C_20  and  C_21
REMARK    9  A    between atoms: C_21  and  C_22
REMARK   10  A    between atoms: C_22  and  C_23
REMARK   11  A    between atoms: C_23  and  C_24
REMARK   12  A    between atoms: C_24  and  C_25
REMARK                            x       y       z     vdW  Elec       q    Type
REMARK                         _______ _______ _______ _____ _____    ______ ____
ROOT
ATOM      1  O   UNL     1      -0.821  -8.405   0.000  0.00  0.00    -0.418 OA
ATOM      2  C   UNL     1      -1.994  -9.340   0.000  0.00  0.00    +0.178 A 
ATOM      3  C   UNL     1      -3.293  -8.590   0.000  0.00  0.00    +0.095 A 
ATOM      4  C   UNL     1      -4.592  -9.340   0.000  0.00  0.00    +0.121 A 
ATOM      7  C   UNL     1      -4.592 -10.840   0.000  0.00  0.00    +0.053 A 
ATOM      8  C   UNL     1      -3.293 -11.590   0.000  0.00  0.00    +0.002 A 
ATOM     14  C   UNL     1      -1.994 -10.840   0.000  0.00  0.00    +0.174 A 
ATOM     15  O   UNL     1      -0.821 -11.775   0.000  0.00  0.00    -0.451 OA
ATOM     16  C   UNL     1       0.641 -11.442   0.000  0.00  0.00    +0.147 A 
ATOM     17  C   UNL     1       1.486 -12.681   0.000  0.00  0.00    +0.092 A 
ATOM     18  C   UNL     1       2.982 -12.569   0.000  0.00  0.00    +0.121 A 
ATOM     21  C   UNL     1       3.633 -11.218   0.000  0.00  0.00    +0.057 A 
ATOM     22  C   UNL     1       2.788  -9.978   0.000  0.00  0.00    +0.038 A 
ATOM     29  C   UNL     1       1.292 -10.090   0.000  0.00  0.00    +0.112 A 
ATOM     30  C   UNL     1       0.641  -8.739   0.000  0.00  0.00    +0.349 C 
ATOM     31  O   UNL     1       1.576  -7.566   0.000  0.00  0.00    -0.244 OA
ENDROOT
BRANCH   4   5
ATOM      5  O   UNL     1      -5.891  -8.590   0.000  0.00  0.00    -0.507 OA
ATOM      6  H   UNL     1      -5.891  -7.653   0.000  0.00  0.00    +0.292 HD
ENDBRANCH   4   5
BRANCH  18  19
ATOM     19  O   UNL     1       3.827 -13.808   0.000  0.00  0.00    -0.507 OA
ATOM     20  H   UNL     1       3.420 -14.653   0.000  0.00  0.00    +0.292 HD
ENDBRANCH  18  19
BRANCH  22  23
ATOM     23  C   UNL     1       3.438  -8.627   0.000  0.00  0.00    +0.164 C 
ATOM     28  O   UNL     1       2.594  -7.387   0.000  0.00  0.00    -0.292 OA
BRANCH  23  24
ATOM     24  C   UNL     1       4.934  -8.515   0.000  0.00  0.00    +0.079 C 
BRANCH  24  25
ATOM     25  C   UNL     1       5.779  -9.754   0.000  0.00  0.00    +0.008 C 
BRANCH  25  26
ATOM     26  C   UNL     1       7.275  -9.642   0.000  0.00  0.00    -0.003 C 
ATOM     27  C   UNL     1       8.120 -10.881   0.000  0.00  0.00    +0.004 C 
ENDBRANCH  25  26
ENDBRANCH  24  25
ENDBRANCH  23  24
ENDBRANCH  22  23
BRANCH   8   9
ATOM      9  C   UNL     1      -3.293 -13.090   0.000  0.00  0.00    +0.039 C 
BRANCH   9  10
ATOM     10  C   UNL     1      -1.994 -13.840   0.000  0.00  0.00    +0.005 C 
BRANCH  10  11
ATOM     11  C   UNL     1      -1.994 -15.340   0.000  0.00  0.00    +0.000 C 
BRANCH  11  12
ATOM     12  C   UNL     1      -0.695 -16.090   0.000  0.00  0.00    -0.003 C 
ATOM     13  C   UNL     1      -0.695 -17.590   0.000  0.00  0.00    +0.004 C 
ENDBRANCH  11  12
ENDBRANCH  10  11
ENDBRANCH   9  10
ENDBRANCH   8   9
TORSDOF 10