REMARK  Name = NSC 72138
REMARK  14 active torsions:
REMARK  status: ('A' for Active; 'I' for Inactive)
REMARK    1  A    between atoms: C_16  and  O_25
REMARK    2  A    between atoms: C_17  and  O_18
REMARK    3  A    between atoms: O_18  and  C_19
REMARK    4  A    between atoms: C_20  and  C_21
REMARK    5  A    between atoms: C_21  and  O_23
REMARK    6  A    between atoms: O_23  and  C_24
REMARK    7  A    between atoms: O_25  and  C_26
REMARK    8  A    between atoms: C_26  and  C_28
REMARK    9  A    between atoms: C_30  and  O_31
REMARK   10  A    between atoms: O_31  and  C_32
REMARK   11  A    between atoms: C_33  and  O_34
REMARK   12  A    between atoms: O_34  and  C_35
REMARK   13  A    between atoms: C_36  and  O_37
REMARK   14  A    between atoms: O_37  and  C_38
REMARK                            x       y       z     vdW  Elec       q    Type
REMARK                         _______ _______ _______ _____ _____    ______ ____
ROOT
ATOM      1  N   UNL     1     -17.390   4.887   0.000  0.00  0.00    -0.356 N 
ATOM      2  H   UNL     1     -17.854   3.460   0.000  0.00  0.00    +0.166 HD
ATOM      3  C   UNL     1     -18.272   6.101   0.000  0.00  0.00    +0.047 A 
ATOM      4  C   UNL     1     -19.764   6.257   0.000  0.00  0.00    +0.026 A 
ATOM      5  C   UNL     1     -20.374   7.628   0.000  0.00  0.00    +0.002 A 
ATOM      6  C   UNL     1     -19.492   8.841   0.000  0.00  0.00    +0.001 A 
ATOM      7  C   UNL     1     -18.000   8.684   0.000  0.00  0.00    +0.010 A 
ATOM      8  C   UNL     1     -17.390   7.314   0.000  0.00  0.00    +0.003 A 
ATOM      9  C   UNL     1     -15.964   6.851   0.000  0.00  0.00    -0.016 A 
ATOM     10  C   UNL     1     -14.664   7.601   0.000  0.00  0.00    +0.053 C 
ATOM     11  C   UNL     1     -13.365   6.851   0.000  0.00  0.00    +0.090 C 
ATOM     12  N   UNL     1     -13.365   5.351   0.000  0.00  0.00    -0.293 NA
ATOM     13  C   UNL     1     -12.066   4.601   0.000  0.00  0.00    +0.089 C 
ATOM     14  C   UNL     1     -12.066   3.100   0.000  0.00  0.00    +0.011 C 
ATOM     15  C   UNL     1     -10.767   2.350   0.000  0.00  0.00    +0.052 C 
ATOM     16  C   UNL     1     -10.767   0.851   0.000  0.00  0.00    +0.206 C 
ATOM     17  C   UNL     1     -12.066   0.101   0.000  0.00  0.00    +0.172 C 
ATOM     20  C   UNL     1     -13.365   0.851   0.000  0.00  0.00    +0.133 C 
ATOM     40  C   UNL     1     -13.365   2.350   0.000  0.00  0.00    +0.012 C 
ATOM     41  C   UNL     1     -14.664   3.100   0.000  0.00  0.00    +0.030 C 
ATOM     42  C   UNL     1     -14.664   4.601   0.000  0.00  0.00    +0.104 C 
ATOM     43  C   UNL     1     -15.964   5.351   0.000  0.00  0.00    +0.038 A 
ENDROOT
BRANCH  17  18
ATOM     18  O   UNL     1     -12.066  -1.400   0.000  0.00  0.00    -0.375 OA
ATOM     19  C   UNL     1     -13.365  -2.150   0.000  0.00  0.00    +0.194 C 
ENDBRANCH  17  18
BRANCH  20  21
ATOM     21  C   UNL     1     -14.664   0.101   0.000  0.00  0.00    +0.313 C 
ATOM     22  O   UNL     1     -15.964   0.850   0.000  0.00  0.00    -0.250 OA
BRANCH  21  23
ATOM     23  O   UNL     1     -14.664  -1.400   0.000  0.00  0.00    -0.468 OA
ATOM     24  C   UNL     1     -15.964  -2.150   0.000  0.00  0.00    +0.280 C 
ENDBRANCH  21  23
ENDBRANCH  20  21
BRANCH  16  25
ATOM     25  O   UNL     1      -9.468   0.101   0.000  0.00  0.00    -0.455 OA
BRANCH  25  26
ATOM     26  C   UNL     1      -8.169   0.851   0.000  0.00  0.00    +0.340 C 
ATOM     27  O   UNL     1      -8.169   2.350   0.000  0.00  0.00    -0.245 OA
BRANCH  26  28
ATOM     28  C   UNL     1      -6.870   0.101   0.000  0.00  0.00    +0.066 A 
ATOM     29  C   UNL     1      -6.870  -1.400   0.000  0.00  0.00    +0.064 A 
ATOM     30  C   UNL     1      -5.571  -2.150   0.000  0.00  0.00    +0.166 A 
ATOM     33  C   UNL     1      -4.272  -1.400   0.000  0.00  0.00    +0.204 A 
ATOM     36  C   UNL     1      -4.272   0.101   0.000  0.00  0.00    +0.166 A 
ATOM     39  C   UNL     1      -5.571   0.851   0.000  0.00  0.00    +0.064 A 
BRANCH  30  31
ATOM     31  O   UNL     1      -5.571  -3.650   0.000  0.00  0.00    -0.491 OA
ATOM     32  C   UNL     1      -6.870  -4.399   0.000  0.00  0.00    +0.277 C 
ENDBRANCH  30  31
BRANCH  33  34
ATOM     34  O   UNL     1      -2.973  -2.150   0.000  0.00  0.00    -0.488 OA
ATOM     35  C   UNL     1      -1.674  -1.400   0.000  0.00  0.00    +0.277 C 
ENDBRANCH  33  34
BRANCH  36  37
ATOM     37  O   UNL     1      -2.973   0.851   0.000  0.00  0.00    -0.491 OA
ATOM     38  C   UNL     1      -1.674   0.101   0.000  0.00  0.00    +0.277 C 
ENDBRANCH  36  37
ENDBRANCH  26  28
ENDBRANCH  25  26
ENDBRANCH  16  25
TORSDOF 9