REMARK  Name = NSC 269760
REMARK  7 active torsions:
REMARK  status: ('A' for Active; 'I' for Inactive)
REMARK    1  A    between atoms: C_9  and  C_10
REMARK    2  A    between atoms: C_14  and  C_15
REMARK    3  A    between atoms: C_29  and  C_30
REMARK    4  A    between atoms: C_30  and  C_31
REMARK    5  A    between atoms: C_30  and  O_32
REMARK    6  A    between atoms: C_37  and  O_38
REMARK    7  A    between atoms: C_44  and  C_45
REMARK                            x       y       z     vdW  Elec       q    Type
REMARK                         _______ _______ _______ _____ _____    ______ ____
ROOT
ATOM      1  C   UNL     1       7.911  -6.350   0.000  0.00  0.00    +0.261 C 
ATOM      2  C   UNL     1       7.011  -5.150   0.000  0.00  0.00    +0.339 C 
ATOM      3  O   UNL     1       6.644  -3.696   0.000  0.00  0.00    -0.462 OA
ATOM      4  C   UNL     1       8.114  -3.396   0.000  0.00  0.00    +0.242 C 
ATOM      5  C   UNL     1       8.114   0.283   0.000  0.00  0.00    +0.045 C 
ATOM      6  C   UNL     1       6.815  -0.467   0.000  0.00  0.00    +0.016 C 
ATOM      7  C   UNL     1       5.516   0.283   0.000  0.00  0.00    +0.038 C 
ATOM      8  C   UNL     1       5.516   1.783   0.000  0.00  0.00    +0.096 C 
ATOM      9  C   UNL     1       4.016   1.783   0.000  0.00  0.00    +0.044 C 
ATOM     10  C   UNL     1       6.815   2.533   0.000  0.00  0.00    +0.180 C 
ATOM     11  O   UNL     1       5.516   3.283   0.000  0.00  0.00    -0.362 OA
ATOM     12  C   UNL     1       9.287  -0.652   0.000  0.00  0.00    +0.050 C 
ATOM     13  C   UNL     1       8.953  -2.115   0.000  0.00  0.00    +0.019 C 
ATOM     14  C   UNL     1       7.992   1.842   0.000  0.00  0.00    +0.128 C 
ATOM     15  C   UNL     1       8.393   4.918   0.000  0.00  0.00    +0.199 C 
ATOM     16  C   UNL     1      10.749   2.384   0.000  0.00  0.00    +0.157 C 
ATOM     17  C   UNL     1      11.400   1.033   0.000  0.00  0.00    +0.080 C 
ATOM     18  O   UNL     1       9.287   2.718   0.000  0.00  0.00    -0.367 OA
ATOM     19  O   UNL     1       9.789   4.370   0.000  0.00  0.00    -0.365 OA
ATOM     20  C   UNL     1      10.749  -0.319   0.000  0.00  0.00    +0.189 C 
ATOM     21  O   UNL     1      12.249  -0.296   0.000  0.00  0.00    -0.458 OA
ATOM     22  C   UNL     1      13.449   0.603   0.000  0.00  0.00    +0.332 C 
ATOM     23  C   UNL     1      14.470  -0.496   0.000  0.00  0.00    +0.091 C 
ATOM     24  C   UNL     1      15.239  -1.784   0.000  0.00  0.00    +0.007 C 
ATOM     25  C   UNL     1      14.039  -2.684   0.000  0.00  0.00    -0.001 C 
ATOM     26  C   UNL     1      14.946  -3.878   0.000  0.00  0.00    +0.007 C 
ATOM     27  C   UNL     1      14.356  -5.257   0.000  0.00  0.00    +0.169 C 
ATOM     32  O   UNL     1      12.866  -5.427   0.000  0.00  0.00    -0.367 OA
ATOM     33  C   UNL     1      11.404  -5.761   0.000  0.00  0.00    +0.195 C 
ATOM     34  C   UNL     1       9.904  -5.783   0.000  0.00  0.00    +0.175 C 
ATOM     37  O   UNL     1      13.584   2.097   0.000  0.00  0.00    -0.246 OA
ATOM     38  C   UNL     1       8.114   1.783   0.000  0.00  0.00    +0.160 C 
ATOM     39  O   UNL     1       5.657  -5.796   0.000  0.00  0.00    -0.248 OA
ATOM     40  C   UNL     1       9.204  -7.110   0.000  0.00  0.00    +0.132 C 
ATOM     41  C   UNL     1      10.281  -8.154   0.000  0.00  0.00    +0.048 C 
ATOM     42  O   UNL     1       7.899  -7.850   0.000  0.00  0.00    -0.350 OA
ENDROOT
BRANCH  27  28
ATOM     28  C   UNL     1      15.816  -5.601   0.000  0.00  0.00    +0.144 C 
ATOM     29  C   UNL     1      16.845  -4.509   0.000  0.00  0.00    +0.040 C 
BRANCH  28  30
ATOM     30  O   UNL     1      16.909  -6.630   0.000  0.00  0.00    -0.389 OA
ATOM     31  H   UNL     1      16.686  -7.574   0.000  0.00  0.00    +0.210 HD
ENDBRANCH  28  30
ENDBRANCH  27  28
BRANCH  34  35
ATOM     35  O   UNL     1       9.120  -4.505   0.000  0.00  0.00    -0.387 OA
ATOM     36  H   UNL     1       9.582  -3.652   0.000  0.00  0.00    +0.210 HD
ENDBRANCH  34  35
TORSDOF 3