REMARK  Name = NSC 2150
REMARK  4 active torsions:
REMARK  status: ('A' for Active; 'I' for Inactive)
REMARK    1  A    between atoms: C_1  and  C_2
REMARK    2  A    between atoms: C_4  and  O_5
REMARK    3  A    between atoms: C_6  and  O_9
REMARK    4  A    between atoms: O_9  and  C_10
REMARK                            x       y       z     vdW  Elec       q    Type
REMARK                         _______ _______ _______ _____ _____    ______ ____
ROOT
ATOM      1  C   UNL     1      -5.571   3.650   0.000  0.00  0.00    +0.059 A 
ATOM      4  C   UNL     1      -4.272   2.900   0.000  0.00  0.00    +0.169 A 
ATOM      7  C   UNL     1      -4.272   1.400   0.000  0.00  0.00    +0.162 A 
ATOM      8  C   UNL     1      -5.571   0.649   0.000  0.00  0.00    +0.049 A 
ATOM      9  C   UNL     1      -6.870   1.400   0.000  0.00  0.00    +0.004 A 
ATOM     12  C   UNL     1      -6.870   2.900   0.000  0.00  0.00    +0.015 A 
ENDROOT
BRANCH   1   2
ATOM      2  C   UNL     1      -5.571   5.149   0.000  0.00  0.00    +0.262 C 
ATOM      3  O   UNL     1      -6.870   5.899   0.000  0.00  0.00    -0.296 OA
ENDBRANCH   1   2
BRANCH   4   5
ATOM      5  O   UNL     1      -2.973   3.650   0.000  0.00  0.00    -0.503 OA
ATOM      6  H   UNL     1      -2.162   3.181   0.000  0.00  0.00    +0.292 HD
ENDBRANCH   4   5
BRANCH   7  10
ATOM     10  O   UNL     1      -2.973   0.649   0.000  0.00  0.00    -0.491 OA
ATOM     11  C   UNL     1      -2.973  -0.851   0.000  0.00  0.00    +0.277 C 
ENDBRANCH   7  10
TORSDOF 3