REMARK  Name = NSC 8625
REMARK  1 active torsions:
REMARK  status: ('A' for Active; 'I' for Inactive)
REMARK    1  A    between atoms: C_12  and  O_13
REMARK                            x       y       z     vdW  Elec       q    Type
REMARK                         _______ _______ _______ _____ _____    ______ ____
ROOT
ATOM      1  O   UNL     1      -1.574  -1.775   0.000  0.00  0.00    -0.283 OA
ATOM      2  C   UNL     1      -1.574  -3.275   0.000  0.00  0.00    +0.228 C 
ATOM      3  C   UNL     1      -2.873  -4.024   0.000  0.00  0.00    +0.036 A 
ATOM      4  C   UNL     1      -4.172  -3.275   0.000  0.00  0.00    +0.012 A 
ATOM      5  C   UNL     1      -5.471  -4.024   0.000  0.00  0.00    +0.001 A 
ATOM      6  C   UNL     1      -5.471  -5.524   0.000  0.00  0.00    +0.001 A 
ATOM      7  C   UNL     1      -4.172  -6.274   0.000  0.00  0.00    +0.012 A 
ATOM      8  C   UNL     1      -2.873  -5.524   0.000  0.00  0.00    +0.033 A 
ATOM      9  C   UNL     1      -1.574  -6.274   0.000  0.00  0.00    +0.190 C 
ATOM     10  C   UNL     1      -0.275  -5.524   0.000  0.00  0.00    +0.100 C 
ATOM     11  O   UNL     1      -1.574  -7.774   0.000  0.00  0.00    -0.287 OA
ATOM     12  C   UNL     1      -0.275  -4.024   0.000  0.00  0.00    +0.168 C 
ENDROOT
BRANCH  12  13
ATOM     13  O   UNL     1       1.025  -3.275   0.000  0.00  0.00    -0.503 OA
ATOM     14  H   UNL     1       1.836  -3.743   0.000  0.00  0.00    +0.292 HD
ENDBRANCH  12  13
TORSDOF 1