REMARK  Name = NSC 376128
REMARK  33 active torsions:
REMARK  status: ('A' for Active; 'I' for Inactive)
REMARK    1  A    between atoms: C_2  and  C_3
REMARK    2  A    between atoms: C_3  and  C_4
REMARK    3  A    between atoms: C_4  and  N_5
REMARK    4  A    between atoms: C_4  and  C_48
REMARK    5  A    between atoms: C_6  and  C_8
REMARK    6  A    between atoms: C_8  and  C_9
REMARK    7  A    between atoms: C_8  and  C_10
REMARK    8  A    between atoms: C_10  and  O_11
REMARK    9  A    between atoms: C_10  and  C_13
REMARK   10  A    between atoms: O_11  and  C_12
REMARK   11  A    between atoms: C_19  and  C_21
REMARK   12  A    between atoms: C_21  and  C_22
REMARK   13  A    between atoms: C_22  and  O_23
REMARK   14  A    between atoms: C_22  and  C_25
REMARK   15  A    between atoms: O_23  and  C_24
REMARK   16  A    between atoms: C_25  and  N_26
REMARK   17  A    between atoms: C_25  and  C_44
REMARK   18  A    between atoms: N_26  and  C_27
REMARK   19  A    between atoms: C_28  and  C_29
REMARK   20  A    between atoms: C_29  and  N_30
REMARK   21  A    between atoms: C_29  and  C_40
REMARK   22  A    between atoms: C_31  and  C_33
REMARK   23  A    between atoms: C_33  and  N_34
REMARK   24  A    between atoms: C_33  and  C_37
REMARK   25  A    between atoms: N_34  and  C_35
REMARK   26  A    between atoms: N_34  and  C_36
REMARK   27  A    between atoms: C_37  and  C_38
REMARK   28  A    between atoms: C_37  and  C_39
REMARK   29  A    between atoms: C_40  and  C_41
REMARK   30  A    between atoms: C_40  and  C_42
REMARK   31  A    between atoms: C_44  and  C_45
REMARK   32  A    between atoms: C_44  and  C_47
REMARK   33  A    between atoms: C_45  and  C_46
REMARK                            x       y       z     vdW  Elec       q    Type
REMARK                         _______ _______ _______ _____ _____    ______ ____
ROOT
ATOM     14  C   UNL     1     -12.400  -4.913   0.000  0.00  0.00    +0.105 C 
ATOM     15  C   UNL     1     -12.863  -6.340   0.000  0.00  0.00    +0.026 C 
ATOM     16  C   UNL     1     -14.363  -6.340   0.000  0.00  0.00    +0.021 C 
ATOM     17  C   UNL     1     -14.827  -4.913   0.000  0.00  0.00    +0.108 C 
ATOM     18  N   UNL     1     -13.613  -4.032   0.000  0.00  0.00    -0.296 N 
ATOM     19  C   UNL     1     -13.613  -2.007   0.000  0.00  0.00    +0.218 C 
ATOM     20  O   UNL     1     -12.314  -1.257   0.000  0.00  0.00    -0.276 OA
ENDROOT
BRANCH  14  11
ATOM     11  C   UNL     1     -11.435  -3.764   0.000  0.00  0.00    +0.150 C 
BRANCH  11   9
ATOM      9  C   UNL     1      -9.958  -4.025   0.000  0.00  0.00    +0.102 C 
ATOM     10  C   UNL     1      -9.445  -5.434   0.000  0.00  0.00    +0.020 C 
BRANCH   9   7
ATOM      5  N   UNL     1      -7.517  -3.136   0.000  0.00  0.00    -0.306 N 
ATOM      6  H   UNL     1      -6.884  -2.382   0.000  0.00  0.00    +0.149 HD
ATOM      7  C   UNL     1      -8.994  -2.876   0.000  0.00  0.00    +0.219 C 
ATOM      8  O   UNL     1      -9.507  -1.466   0.000  0.00  0.00    -0.275 OA
BRANCH   5   4
ATOM      4  C   UNL     1      -7.004  -4.546   0.000  0.00  0.00    +0.133 C 
BRANCH   4  49
ATOM     49  C   UNL     1      -5.527  -4.806   0.000  0.00  0.00    +0.099 A 
ATOM     50  N   UNL     1      -4.447  -3.764   0.000  0.00  0.00    -0.250 NA
ATOM     51  C   UNL     1      -3.123  -4.468   0.000  0.00  0.00    +0.119 A 
ATOM     52  C   UNL     1      -3.384  -5.945   0.000  0.00  0.00    +0.066 A 
ATOM     53  S   UNL     1      -4.869  -6.154   0.000  0.00  0.00    -0.079 S 
ENDBRANCH   4  49
BRANCH   4   3
ATOM      3  C   UNL     1      -7.968  -5.695   0.000  0.00  0.00    +0.064 C 
BRANCH   3   2
ATOM      1  C   UNL     1      -8.419  -8.253   0.000  0.00  0.00    +0.004 A 
ATOM      2  C   UNL     1      -7.455  -7.104   0.000  0.00  0.00    -0.045 A 
ATOM     54  C   UNL     1      -5.978  -7.365   0.000  0.00  0.00    +0.004 A 
ATOM     55  C   UNL     1      -5.465  -8.774   0.000  0.00  0.00    +0.000 A 
ATOM     56  C   UNL     1      -6.429  -9.923   0.000  0.00  0.00    +0.000 A 
ATOM     57  C   UNL     1      -7.906  -9.663   0.000  0.00  0.00    +0.000 A 
ENDBRANCH   3   2
ENDBRANCH   4   3
ENDBRANCH   5   4
ENDBRANCH   9   7
ENDBRANCH  11   9
BRANCH  11  12
ATOM     12  O   UNL     1     -11.948  -2.355   0.000  0.00  0.00    -0.377 OA
ATOM     13  C   UNL     1     -10.984  -1.206   0.000  0.00  0.00    +0.194 C 
ENDBRANCH  11  12
ENDBRANCH  14  11
BRANCH  19  21
ATOM     21  C   UNL     1     -15.367  -0.994   0.000  0.00  0.00    +0.129 C 
BRANCH  21  22
ATOM     22  C   UNL     1     -16.666  -1.744   0.000  0.00  0.00    +0.147 C 
BRANCH  22  23
ATOM     23  O   UNL     1     -16.666  -3.244   0.000  0.00  0.00    -0.377 OA
ATOM     24  C   UNL     1     -17.965  -3.994   0.000  0.00  0.00    +0.194 C 
ENDBRANCH  22  23
BRANCH  22  25
ATOM     25  C   UNL     1     -17.965  -0.994   0.000  0.00  0.00    +0.108 C 
BRANCH  25  26
ATOM     26  N   UNL     1     -17.965   0.506   0.000  0.00  0.00    -0.297 N 
ATOM     27  C   UNL     1     -19.264   1.256   0.000  0.00  0.00    +0.132 C 
ATOM     28  C   UNL     1     -16.666   1.256   0.000  0.00  0.00    +0.236 C 
ATOM     44  O   UNL     1     -15.367   0.506   0.000  0.00  0.00    -0.274 OA
BRANCH  28  29
ATOM     29  C   UNL     1     -16.666   2.756   0.000  0.00  0.00    +0.162 C 
BRANCH  29  30
ATOM     30  N   UNL     1     -15.367   3.506   0.000  0.00  0.00    -0.302 N 
ATOM     31  H   UNL     1     -15.367   4.490   0.000  0.00  0.00    +0.150 HD
ATOM     32  C   UNL     1     -14.068   2.756   0.000  0.00  0.00    +0.231 C 
ATOM     33  O   UNL     1     -14.068   1.256   0.000  0.00  0.00    -0.274 OA
BRANCH  32  34
ATOM     34  C   UNL     1     -12.769   3.506   0.000  0.00  0.00    +0.145 C 
BRANCH  34  35
ATOM     35  N   UNL     1     -11.470   2.756   0.000  0.00  0.00    -0.297 NA
ATOM     36  C   UNL     1     -11.470   1.256   0.000  0.00  0.00    +0.105 C 
ATOM     37  C   UNL     1     -10.171   3.506   0.000  0.00  0.00    +0.105 C 
ENDBRANCH  34  35
BRANCH  34  38
ATOM     38  C   UNL     1     -12.769   5.006   0.000  0.00  0.00    +0.009 C 
ATOM     39  C   UNL     1     -14.068   5.756   0.000  0.00  0.00    +0.009 C 
ATOM     40  C   UNL     1     -11.470   5.756   0.000  0.00  0.00    +0.009 C 
ENDBRANCH  34  38
ENDBRANCH  32  34
ENDBRANCH  29  30
BRANCH  29  41
ATOM     41  C   UNL     1     -17.965   3.506   0.000  0.00  0.00    +0.012 C 
ATOM     42  C   UNL     1     -17.965   5.006   0.000  0.00  0.00    +0.009 C 
ATOM     43  C   UNL     1     -19.264   2.756   0.000  0.00  0.00    +0.009 C 
ENDBRANCH  29  41
ENDBRANCH  28  29
ENDBRANCH  25  26
BRANCH  25  45
ATOM     45  C   UNL     1     -19.264  -1.744   0.000  0.00  0.00    +0.009 C 
ATOM     48  C   UNL     1     -20.563  -0.994   0.000  0.00  0.00    +0.009 C 
BRANCH  45  46
ATOM     46  C   UNL     1     -19.264  -3.244   0.000  0.00  0.00    +0.002 C 
ATOM     47  C   UNL     1     -20.563  -3.994   0.000  0.00  0.00    +0.004 C 
ENDBRANCH  45  46
ENDBRANCH  25  45
ENDBRANCH  22  25
ENDBRANCH  21  22
ENDBRANCH  19  21
TORSDOF 21