REMARK  Name = NSC 43339
REMARK  8 active torsions:
REMARK  status: ('A' for Active; 'I' for Inactive)
REMARK    1  A    between atoms: C_5  and  C_6
REMARK    2  A    between atoms: C_6  and  C_7
REMARK    3  A    between atoms: C_8  and  C_9
REMARK    4  A    between atoms: C_8  and  C_10
REMARK    5  A    between atoms: C_11  and  C_12
REMARK    6  A    between atoms: C_12  and  C_13
REMARK    7  A    between atoms: C_12  and  C_14
REMARK    8  A    between atoms: C_16  and  O_17
REMARK                            x       y       z     vdW  Elec       q    Type
REMARK                         _______ _______ _______ _____ _____    ______ ____
ROOT
ATOM      1  O   UNL     1      -9.637  -5.940   0.000  0.00  0.00    -0.284 OA
ATOM      2  C   UNL     1      -8.175  -5.606   0.000  0.00  0.00    +0.220 A 
ATOM      3  C   UNL     1      -7.240  -6.779   0.000  0.00  0.00    +0.055 A 
ATOM      4  C   UNL     1      -5.740  -6.779   0.000  0.00  0.00    +0.008 A 
ATOM      5  C   UNL     1      -4.805  -5.606   0.000  0.00  0.00    -0.040 A 
ATOM     11  C   UNL     1      -5.138  -4.144   0.000  0.00  0.00    -0.038 A 
ATOM     15  C   UNL     1      -6.490  -3.493   0.000  0.00  0.00    +0.053 A 
ATOM     16  C   UNL     1      -7.841  -4.144   0.000  0.00  0.00    +0.164 A 
ENDROOT
BRANCH  11  12
ATOM     12  C   UNL     1      -3.966  -3.209   0.000  0.00  0.00    +0.013 C 
ATOM     13  C   UNL     1      -4.189  -1.725   0.000  0.00  0.00    +0.012 C 
ATOM     14  C   UNL     1      -2.569  -3.757   0.000  0.00  0.00    +0.012 C 
ENDBRANCH  11  12
BRANCH  16  17
ATOM     17  O   UNL     1      -9.014  -3.209   0.000  0.00  0.00    -0.503 OA
ATOM     18  H   UNL     1      -8.874  -2.282   0.000  0.00  0.00    +0.292 HD
ENDBRANCH  16  17
BRANCH   5   6
ATOM      6  C   UNL     1      -3.342  -5.940   0.000  0.00  0.00    +0.062 C 
BRANCH   6   7
ATOM      7  C   UNL     1      -2.322  -4.840   0.000  0.00  0.00    -0.024 C 
ATOM      8  C   UNL     1      -0.860  -5.174   0.000  0.00  0.00    -0.079 C 
ATOM      9  C   UNL     1      -0.417  -6.608   0.000  0.00  0.00    +0.038 C 
ATOM     10  C   UNL     1       0.161  -4.075   0.000  0.00  0.00    +0.038 C 
ENDBRANCH   6   7
ENDBRANCH   5   6
TORSDOF 4