REMARK  Name = NSC 785164#1
REMARK  1 active torsions:
REMARK  status: ('A' for Active; 'I' for Inactive)
REMARK    1  A    between atoms: C_1  and  N_2
REMARK                            x       y       z     vdW  Elec       q    Type
REMARK                         _______ _______ _______ _____ _____    ______ ____
ROOT
ATOM      1  C   UNL     1      -4.373   0.074   0.000  0.00  0.00    +0.105 C 
ATOM      2  N   UNL     1      -4.373   1.574   0.000  0.00  0.00    -0.298 NA
ATOM      3  C   UNL     1      -3.074   2.324   0.000  0.00  0.00    +0.089 C 
ATOM      4  C   UNL     1      -3.074   3.824   0.000  0.00  0.00    +0.051 C 
ATOM      5  C   UNL     1      -4.373   4.574   0.000  0.00  0.00    -0.037 A 
ATOM      6  C   UNL     1      -4.373   6.074   0.000  0.00  0.00    +0.053 A 
ATOM      7  C   UNL     1      -5.672   6.824   0.000  0.00  0.00    +0.167 A 
ATOM      8  O   UNL     1      -5.984   8.291   0.000  0.00  0.00    -0.453 OA
ATOM      9  C   UNL     1      -7.475   8.448   0.000  0.00  0.00    +0.466 C 
ATOM     10  O   UNL     1      -8.085   7.077   0.000  0.00  0.00    -0.452 OA
ATOM     11  C   UNL     1      -6.971   6.074   0.000  0.00  0.00    +0.174 A 
ATOM     12  C   UNL     1      -6.971   4.574   0.000  0.00  0.00    +0.033 A 
ATOM     13  C   UNL     1      -8.270   3.824   0.000  0.00  0.00    -0.011 A 
ATOM     14  C   UNL     1      -9.569   4.574   0.000  0.00  0.00    +0.009 A 
ATOM     15  C   UNL     1     -10.868   3.824   0.000  0.00  0.00    +0.001 A 
ATOM     16  C   UNL     1     -10.868   2.324   0.000  0.00  0.00    +0.000 A 
ATOM     17  C   UNL     1      -9.569   1.574   0.000  0.00  0.00    +0.004 A 
ATOM     18  C   UNL     1      -8.270   2.324   0.000  0.00  0.00    -0.038 A 
ATOM     19  C   UNL     1      -6.971   1.574   0.000  0.00  0.00    +0.059 C 
ATOM     20  C   UNL     1      -5.672   3.824   0.000  0.00  0.00    -0.015 A 
ATOM     21  C   UNL     1      -5.672   2.324   0.000  0.00  0.00    +0.092 C 
ENDROOT
TORSDOF 0