REMARK  Name = NSC 642099
REMARK  8 active torsions:
REMARK  status: ('A' for Active; 'I' for Inactive)
REMARK    1  A    between atoms: C_5  and  O_6
REMARK    2  A    between atoms: C_16  and  O_17
REMARK    3  A    between atoms: C_18  and  O_19
REMARK    4  A    between atoms: C_24  and  C_25
REMARK    5  A    between atoms: C_24  and  C_30
REMARK    6  A    between atoms: C_25  and  O_26
REMARK    7  A    between atoms: O_26  and  C_27
REMARK    8  A    between atoms: C_27  and  C_28
REMARK                            x       y       z     vdW  Elec       q    Type
REMARK                         _______ _______ _______ _____ _____    ______ ____
ROOT
ATOM      1  C   UNL     1      -1.186   0.997   0.000  0.00  0.00    +0.010 C 
ATOM      2  C   UNL     1      -0.636   0.447   0.000  0.00  0.00    +0.004 C 
ATOM      3  C   UNL     1      -0.086   0.447   0.000  0.00  0.00    +0.171 C 
ATOM      4  O   UNL     1      -0.086  -0.103   0.000  0.00  0.00    -0.345 OA
ATOM      5  C   UNL     1       0.464  -0.103   0.000  0.00  0.00    +0.210 C 
ATOM      8  C   UNL     1       0.464   0.447   0.000  0.00  0.00    +0.119 C 
ATOM      9  C   UNL     1       1.564  -0.103   0.000  0.00  0.00    +0.173 C 
ATOM     10  O   UNL     1       2.114  -0.653   0.000  0.00  0.00    -0.292 OA
ATOM     11  C   UNL     1       2.114   0.997   0.000  0.00  0.00    -0.006 C 
ATOM     12  C   UNL     1       2.664   1.547   0.000  0.00  0.00    +0.016 C 
ATOM     13  C   UNL     1       1.014   1.547   0.000  0.00  0.00    +0.052 C 
ATOM     14  C   UNL     1       0.464   2.097   0.000  0.00  0.00    +0.011 C 
ATOM     15  C   UNL     1      -0.086   1.547   0.000  0.00  0.00    +0.006 C 
ATOM     16  C   UNL     1       1.014   0.997   0.000  0.00  0.00    +0.141 C 
ATOM     19  C   UNL     1      -0.086  -0.653   0.000  0.00  0.00    +0.179 C 
ATOM     22  C   UNL     1      -0.086   0.997   0.000  0.00  0.00    +0.019 C 
ATOM     23  C   UNL     1      -0.636  -0.103   0.000  0.00  0.00    +0.041 C 
ATOM     24  C   UNL     1      -1.186  -0.653   0.000  0.00  0.00    +0.008 C 
ATOM     30  C   UNL     1      -1.736  -1.203   0.000  0.00  0.00    +0.015 C 
ATOM     31  C   UNL     1      -1.736  -0.103   0.000  0.00  0.00    +0.010 C 
ATOM     32  C   UNL     1      -1.736   0.447   0.000  0.00  0.00    +0.001 C 
ENDROOT
BRANCH   5   6
ATOM      6  O   UNL     1       1.014  -0.653   0.000  0.00  0.00    -0.362 OA
ATOM      7  H   UNL     1       0.763  -1.590   0.000  0.00  0.00    +0.213 HD
ENDBRANCH   5   6
BRANCH  16  17
ATOM     17  O   UNL     1       1.564   0.447   0.000  0.00  0.00    -0.390 OA
ATOM     18  H   UNL     1       1.313  -0.490   0.000  0.00  0.00    +0.210 HD
ENDBRANCH  16  17
BRANCH  19  20
ATOM     20  O   UNL     1      -0.086  -1.203   0.000  0.00  0.00    -0.386 OA
ATOM     21  H   UNL     1      -0.926  -1.688   0.000  0.00  0.00    +0.210 HD
ENDBRANCH  19  20
BRANCH  24  25
ATOM     25  C   UNL     1      -0.636  -1.203   0.000  0.00  0.00    +0.239 C 
BRANCH  25  26
ATOM     26  O   UNL     1      -0.636  -1.753   0.000  0.00  0.00    -0.464 OA
BRANCH  26  27
ATOM     27  C   UNL     1      -1.186  -2.303   0.000  0.00  0.00    +0.304 C 
ATOM     28  C   UNL     1      -0.636  -2.853   0.000  0.00  0.00    +0.136 C 
ATOM     29  O   UNL     1      -1.736  -2.303   0.000  0.00  0.00    -0.251 OA
ENDBRANCH  26  27
ENDBRANCH  25  26
ENDBRANCH  24  25
TORSDOF 6