REMARK  Name = NSC 12865#2
REMARK  0 active torsions:
REMARK  status: ('A' for Active; 'I' for Inactive)
REMARK                            x       y       z     vdW  Elec       q    Type
REMARK                         _______ _______ _______ _____ _____    ______ ____
ROOT
ATOM      1 BR   UNL     1      -9.508  -3.490   0.000  0.00  0.00    -0.113 Br
ATOM      2  H   UNL     1      -7.998  -3.490   0.000  0.00  0.00    +0.113 HD
ENDROOT
TORSDOF 0