REMARK  Name = NSC 56410
REMARK  8 active torsions:
REMARK  status: ('A' for Active; 'I' for Inactive)
REMARK    1  A    between atoms: C_3  and  N_4
REMARK    2  A    between atoms: C_5  and  C_6
REMARK    3  A    between atoms: N_13  and  C_14
REMARK    4  A    between atoms: C_15  and  O_16
REMARK    5  A    between atoms: O_16  and  C_17
REMARK    6  A    between atoms: C_18  and  C_19
REMARK    7  A    between atoms: C_19  and  O_20
REMARK    8  A    between atoms: O_20  and  C_21
REMARK                            x       y       z     vdW  Elec       q    Type
REMARK                         _______ _______ _______ _____ _____    ______ ____
ROOT
ATOM      1  O   UNL     1       1.711   7.231   0.000  0.00  0.00    -0.286 OA
ATOM      2  C   UNL     1       2.175   5.804   0.000  0.00  0.00    +0.205 C 
ATOM      3  C   UNL     1       1.171   4.690   0.000  0.00  0.00    +0.079 C 
ATOM      7  C   UNL     1       1.634   3.263   0.000  0.00  0.00    +0.022 C 
ATOM      8  C   UNL     1       0.631   2.148   0.000  0.00  0.00    +0.050 C 
ATOM      9  C   UNL     1       3.102   2.951   0.000  0.00  0.00    +0.205 C 
ATOM     10  C   UNL     1       4.105   4.066   0.000  0.00  0.00    +0.087 C 
ATOM     11  N   UNL     1       5.605   4.066   0.000  0.00  0.00    -0.295 N 
ATOM     12  C   UNL     1       6.819   3.184   0.000  0.00  0.00    +0.128 C 
ATOM     13  C   UNL     1       8.032   4.066   0.000  0.00  0.00    +0.096 C 
ATOM     14  C   UNL     1       7.569   5.492   0.000  0.00  0.00    +0.127 C 
ATOM     15  N   UNL     1       9.036   5.181   0.000  0.00  0.00    -0.291 NA
ATOM     16  C   UNL     1      10.463   5.644   0.000  0.00  0.00    +0.105 C 
ATOM     17  C   UNL     1       6.069   5.492   0.000  0.00  0.00    +0.163 C 
ATOM     20  C   UNL     1       4.855   6.374   0.000  0.00  0.00    +0.114 C 
ATOM     28  O   UNL     1       3.565   1.525   0.000  0.00  0.00    -0.286 OA
ATOM     29  C   UNL     1       3.642   5.492   0.000  0.00  0.00    +0.037 C 
ENDROOT
BRANCH   3   4
ATOM      4  N   UNL     1      -0.296   5.002   0.000  0.00  0.00    -0.355 N 
ATOM      5  H   UNL     1      -0.955   4.270   0.000  0.00  0.00    +0.142 HD
ATOM      6  H   UNL     1      -0.601   5.938   0.000  0.00  0.00    +0.142 HD
ENDBRANCH   3   4
BRANCH  17  18
ATOM     18  O   UNL     1       6.532   6.919   0.000  0.00  0.00    -0.357 OA
ATOM     19  C   UNL     1       8.000   7.231   0.000  0.00  0.00    +0.196 C 
ENDBRANCH  17  18
BRANCH  20  21
ATOM     21  C   UNL     1       4.855   7.874   0.000  0.00  0.00    +0.246 C 
BRANCH  21  22
ATOM     22  O   UNL     1       3.446   8.387   0.000  0.00  0.00    -0.450 OA
BRANCH  22  23
ATOM     23  C   UNL     1       3.185   9.864   0.000  0.00  0.00    +0.398 C 
ATOM     24  N   UNL     1       4.334  10.829   0.000  0.00  0.00    -0.295 N 
ATOM     25  H   UNL     1       4.163  11.798   0.000  0.00  0.00    +0.148 HD
ATOM     26  H   UNL     1       5.260  10.492   0.000  0.00  0.00    +0.148 HD
ATOM     27  O   UNL     1       1.776  10.377   0.000  0.00  0.00    -0.227 OA
ENDBRANCH  22  23
ENDBRANCH  21  22
ENDBRANCH  20  21
TORSDOF 5