REMARK  Name = NSC 5366
REMARK  8 active torsions:
REMARK  status: ('A' for Active; 'I' for Inactive)
REMARK    1  A    between atoms: N_1  and  C_2
REMARK    2  A    between atoms: C_7  and  O_8
REMARK    3  A    between atoms: O_8  and  C_9
REMARK    4  A    between atoms: C_16  and  C_17
REMARK    5  A    between atoms: C_21  and  O_22
REMARK    6  A    between atoms: O_22  and  C_23
REMARK    7  A    between atoms: C_24  and  O_25
REMARK    8  A    between atoms: O_25  and  C_26
REMARK                            x       y       z     vdW  Elec       q    Type
REMARK                         _______ _______ _______ _____ _____    ______ ____
ROOT
ATOM      1  N   UNL     1       3.789   9.983   0.000  0.00  0.00    -0.295 NA
ATOM      2  C   UNL     1       2.490   9.233   0.000  0.00  0.00    +0.105 C 
ATOM      3  C   UNL     1       3.789  11.483   0.000  0.00  0.00    +0.089 C 
ATOM      4  C   UNL     1       5.088  12.233   0.000  0.00  0.00    +0.051 C 
ATOM      5  C   UNL     1       6.387  11.483   0.000  0.00  0.00    -0.034 A 
ATOM      6  C   UNL     1       6.387   9.983   0.000  0.00  0.00    +0.022 A 
ATOM      7  C   UNL     1       7.686   9.233   0.000  0.00  0.00    +0.170 A 
ATOM     10  C   UNL     1       8.985   9.983   0.000  0.00  0.00    +0.208 A 
ATOM     11  C   UNL     1       8.985  11.483   0.000  0.00  0.00    +0.170 A 
ATOM     12  O   UNL     1      10.411  11.947   0.000  0.00  0.00    -0.452 OA
ATOM     13  C   UNL     1      11.293  10.733   0.000  0.00  0.00    +0.467 C 
ATOM     14  O   UNL     1      10.411   9.520   0.000  0.00  0.00    -0.449 OA
ATOM     15  C   UNL     1       7.686  12.233   0.000  0.00  0.00    +0.053 A 
ATOM     16  C   UNL     1       5.088   9.233   0.000  0.00  0.00    +0.136 C 
ENDROOT
BRANCH  16  17
ATOM     17  C   UNL     1       3.497   7.337   0.000  0.00  0.00    +0.229 C 
ATOM     18  C   UNL     1       2.315   6.414   0.000  0.00  0.00    +0.012 A 
ATOM     19  C   UNL     1       0.838   6.674   0.000  0.00  0.00    +0.012 A 
ATOM     20  C   UNL     1      -0.127   5.525   0.000  0.00  0.00    +0.050 A 
ATOM     21  C   UNL     1       0.386   4.115   0.000  0.00  0.00    +0.162 A 
ATOM     24  C   UNL     1       1.864   3.855   0.000  0.00  0.00    +0.176 A 
ATOM     27  C   UNL     1       2.828   5.004   0.000  0.00  0.00    +0.111 A 
ATOM     28  C   UNL     1       4.327   5.056   0.000  0.00  0.00    +0.344 C 
ATOM     29  O   UNL     1       5.250   3.874   0.000  0.00  0.00    -0.245 OA
ATOM     30  O   UNL     1       4.740   6.498   0.000  0.00  0.00    -0.451 OA
BRANCH  21  22
ATOM     22  O   UNL     1      -0.578   2.966   0.000  0.00  0.00    -0.491 OA
ATOM     23  C   UNL     1      -2.055   3.227   0.000  0.00  0.00    +0.277 C 
ENDBRANCH  21  22
BRANCH  24  25
ATOM     25  O   UNL     1       2.377   2.446   0.000  0.00  0.00    -0.491 OA
ATOM     26  C   UNL     1       1.413   1.297   0.000  0.00  0.00    +0.277 C 
ENDBRANCH  24  25
ENDBRANCH  16  17
BRANCH   7   8
ATOM      8  O   UNL     1       7.686   7.733   0.000  0.00  0.00    -0.491 OA
ATOM      9  C   UNL     1       8.985   6.983   0.000  0.00  0.00    +0.277 C 
ENDBRANCH   7   8
TORSDOF 4