REMARK  Name = NSC 785169
REMARK  7 active torsions:
REMARK  status: ('A' for Active; 'I' for Inactive)
REMARK    1  A    between atoms: N_6  and  C_7
REMARK    2  A    between atoms: C_13  and  O_14
REMARK    3  A    between atoms: O_14  and  C_15
REMARK    4  A    between atoms: C_15  and  C_16
REMARK    5  A    between atoms: C_20  and  O_21
REMARK    6  A    between atoms: C_23  and  O_24
REMARK    7  A    between atoms: O_24  and  C_25
REMARK                            x       y       z     vdW  Elec       q    Type
REMARK                         _______ _______ _______ _____ _____    ______ ____
ROOT
ATOM      1  C   UNL     1      -0.506  12.597   0.000  0.00  0.00    +0.053 A 
ATOM      2  C   UNL     1       0.792  11.846   0.000  0.00  0.00    -0.037 A 
ATOM      3  C   UNL     1       0.790  10.346   0.000  0.00  0.00    -0.015 A 
ATOM      4  C   UNL     1       2.088   9.594   0.000  0.00  0.00    +0.092 C 
ATOM      5  N   UNL     1       3.388  10.343   0.000  0.00  0.00    -0.298 NA
ATOM      6  C   UNL     1       4.686   9.591   0.000  0.00  0.00    +0.105 C 
ATOM      7  C   UNL     1       3.390  11.843   0.000  0.00  0.00    +0.089 C 
ATOM      8  C   UNL     1       2.086   8.094   0.000  0.00  0.00    +0.059 C 
ATOM      9  C   UNL     1       0.786   7.346   0.000  0.00  0.00    -0.038 A 
ATOM     10  C   UNL     1      -0.512   8.097   0.000  0.00  0.00    -0.007 A 
ATOM     11  C   UNL     1      -1.812   7.349   0.000  0.00  0.00    +0.054 A 
ATOM     12  C   UNL     1      -1.813   5.849   0.000  0.00  0.00    +0.121 A 
ATOM     16  C   UNL     1      -0.515   5.097   0.000  0.00  0.00    +0.046 A 
ATOM     17  C   UNL     1       0.785   5.846   0.000  0.00  0.00    +0.008 A 
ATOM     18  C   UNL     1      -0.510   9.597   0.000  0.00  0.00    +0.033 A 
ATOM     19  C   UNL     1      -1.808  10.349   0.000  0.00  0.00    +0.167 A 
ATOM     22  C   UNL     1       2.092  12.594   0.000  0.00  0.00    +0.051 C 
ATOM     23  C   UNL     1      -1.806  11.849   0.000  0.00  0.00    +0.162 A 
ENDROOT
BRANCH  19  20
ATOM     20  O   UNL     1      -3.108   9.601   0.000  0.00  0.00    -0.503 OA
ATOM     21  H   UNL     1      -3.919  10.070   0.000  0.00  0.00    +0.292 HD
ENDBRANCH  19  20
BRANCH  23  24
ATOM     24  O   UNL     1      -3.104  12.601   0.000  0.00  0.00    -0.491 OA
ATOM     25  C   UNL     1      -3.103  14.101   0.000  0.00  0.00    +0.277 C 
ENDBRANCH  23  24
BRANCH  12  13
ATOM     13  O   UNL     1      -3.113   5.101   0.000  0.00  0.00    -0.492 OA
BRANCH  13  14
ATOM     14  C   UNL     1      -4.412   5.852   0.000  0.00  0.00    +0.225 C 
ATOM     15  C   UNL     1      -5.712   5.104   0.000  0.00  0.00    +0.048 C 
ENDBRANCH  13  14
ENDBRANCH  12  13
TORSDOF 4