REMARK  Name = NSC 14974
REMARK  8 active torsions:
REMARK  status: ('A' for Active; 'I' for Inactive)
REMARK    1  A    between atoms: C_7  and  C_8
REMARK    2  A    between atoms: C_10  and  O_11
REMARK    3  A    between atoms: C_12  and  O_13
REMARK    4  A    between atoms: C_14  and  C_15
REMARK    5  A    between atoms: C_18  and  O_19
REMARK    6  A    between atoms: C_23  and  C_24
REMARK    7  A    between atoms: C_25  and  O_26
REMARK    8  A    between atoms: C_27  and  O_28
REMARK                            x       y       z     vdW  Elec       q    Type
REMARK                         _______ _______ _______ _____ _____    ______ ____
ROOT
ATOM      1  O   UNL     1       5.046   5.411   0.000  0.00  0.00    -0.346 OA
ATOM      2  C   UNL     1       5.796   4.112   0.000  0.00  0.00    +0.174 C 
ATOM      3  C   UNL     1       7.245   4.500   0.000  0.00  0.00    +0.046 C 
ATOM      4  C   UNL     1       7.245   3.000   0.000  0.00  0.00    +0.186 C 
ATOM      5  C   UNL     1       5.946   2.250   0.000  0.00  0.00    +0.053 C 
ATOM      6  C   UNL     1       4.647   3.000   0.000  0.00  0.00    +0.027 C 
ATOM      7  C   UNL     1       3.348   2.250   0.000  0.00  0.00    -0.070 C 
ATOM      8  C   UNL     1       3.348   0.750   0.000  0.00  0.00    +0.039 C 
ATOM      9  C   UNL     1       2.049   3.000   0.000  0.00  0.00    +0.006 C 
ATOM     10  C   UNL     1       2.049   4.500   0.000  0.00  0.00    +0.166 C 
ATOM     13  C   UNL     1       3.348   5.250   0.000  0.00  0.00    +0.154 C 
ATOM     16  C   UNL     1       4.647   4.500   0.000  0.00  0.00    +0.012 C 
ATOM     17  C   UNL     1       4.647   6.000   0.000  0.00  0.00    +0.015 C 
ATOM     18  O   UNL     1       8.544   2.250   0.000  0.00  0.00    -0.459 OA
ATOM     19  C   UNL     1       9.843   3.000   0.000  0.00  0.00    +0.337 C 
ATOM     20  C   UNL     1       9.843   4.500   0.000  0.00  0.00    +0.227 C 
ATOM     23  O   UNL     1      11.142   2.250   0.000  0.00  0.00    -0.248 OA
ATOM     24  C   UNL     1       5.946   5.250   0.000  0.00  0.00    +0.072 C 
ATOM     25  C   UNL     1       8.544   5.250   0.000  0.00  0.00    +0.046 C 
ATOM     26  C   UNL     1       8.544   6.750   0.000  0.00  0.00    +0.027 C 
ATOM     27  C   UNL     1       9.843   7.500   0.000  0.00  0.00    +0.010 C 
ATOM     28  C   UNL     1       7.245   7.500   0.000  0.00  0.00    +0.177 C 
ATOM     31  C   UNL     1       5.946   6.750   0.000  0.00  0.00    +0.198 C 
ENDROOT
BRANCH  10  11
ATOM     11  O   UNL     1       0.750   5.250   0.000  0.00  0.00    -0.385 OA
ATOM     12  H   UNL     1       0.750   6.220   0.000  0.00  0.00    +0.210 HD
ENDBRANCH  10  11
BRANCH  13  14
ATOM     14  O   UNL     1       3.348   6.750   0.000  0.00  0.00    -0.388 OA
ATOM     15  H   UNL     1       4.188   7.235   0.000  0.00  0.00    +0.210 HD
ENDBRANCH  13  14
BRANCH  20  21
ATOM     21  O   UNL     1      11.142   5.250   0.000  0.00  0.00    -0.380 OA
ATOM     22  H   UNL     1      11.982   4.765   0.000  0.00  0.00    +0.211 HD
ENDBRANCH  20  21
BRANCH  28  29
ATOM     29  O   UNL     1       7.245   9.000   0.000  0.00  0.00    -0.386 OA
ATOM     30  H   UNL     1       8.085   9.485   0.000  0.00  0.00    +0.210 HD
ENDBRANCH  28  29
BRANCH  31  32
ATOM     32  O   UNL     1       4.922   7.846   0.000  0.00  0.00    -0.362 OA
ATOM     33  H   UNL     1       5.205   8.774   0.000  0.00  0.00    +0.213 HD
ENDBRANCH  31  32
TORSDOF 5