REMARK  Name = NSC 16631
REMARK  4 active torsions:
REMARK  status: ('A' for Active; 'I' for Inactive)
REMARK    1  A    between atoms: C_1  and  O_2
REMARK    2  A    between atoms: C_3  and  O_4
REMARK    3  A    between atoms: C_7  and  C_8
REMARK    4  A    between atoms: C_8  and  O_9
REMARK                            x       y       z     vdW  Elec       q    Type
REMARK                         _______ _______ _______ _____ _____    ______ ____
ROOT
ATOM      1  C   UNL     1       2.873   5.524   0.000  0.00  0.00    +0.159 A 
ATOM      4  C   UNL     1       4.172   4.774   0.000  0.00  0.00    +0.158 A 
ATOM      7  C   UNL     1       4.172   3.275   0.000  0.00  0.00    +0.050 A 
ATOM      8  C   UNL     1       2.873   2.525   0.000  0.00  0.00    +0.019 A 
ATOM      9  C   UNL     1       1.574   3.275   0.000  0.00  0.00    +0.063 A 
ATOM     14  C   UNL     1       1.574   4.774   0.000  0.00  0.00    +0.064 A 
ENDROOT
BRANCH   1   2
ATOM      2  O   UNL     1       2.873   7.024   0.000  0.00  0.00    -0.503 OA
ATOM      3  H   UNL     1       3.684   7.493   0.000  0.00  0.00    +0.292 HD
ENDBRANCH   1   2
BRANCH   4   5
ATOM      5  O   UNL     1       5.471   5.524   0.000  0.00  0.00    -0.503 OA
ATOM      6  H   UNL     1       6.282   5.056   0.000  0.00  0.00    +0.292 HD
ENDBRANCH   4   5
BRANCH   9  10
ATOM     10  C   UNL     1       0.275   2.525   0.000  0.00  0.00    +0.337 C 
ATOM     13  O   UNL     1      -1.025   3.275   0.000  0.00  0.00    -0.245 OA
BRANCH  10  11
ATOM     11  O   UNL     1       0.275   1.025   0.000  0.00  0.00    -0.477 OA
ATOM     12  H   UNL     1      -0.537   0.556   0.000  0.00  0.00    +0.295 HD
ENDBRANCH  10  11
ENDBRANCH   9  10
TORSDOF 4