REMARK  Name = NSC 719655
REMARK  5 active torsions:
REMARK  status: ('A' for Active; 'I' for Inactive)
REMARK    1  A    between atoms: C_5  and  O_6
REMARK    2  A    between atoms: O_6  and  C_7
REMARK    3  A    between atoms: C_11  and  C_12
REMARK    4  A    between atoms: C_13  and  C_14
REMARK    5  A    between atoms: C_13  and  C_15
REMARK                            x       y       z     vdW  Elec       q    Type
REMARK                         _______ _______ _______ _____ _____    ______ ____
ROOT
ATOM      1  C   UNK A   1       7.534   4.500   0.000  0.00  0.00    +0.045 A 
ATOM      2  N   UNK A   1       6.107   4.963   0.000  0.00  0.00    -0.356 N 
ATOM      3  H   UNK A   1       5.803   5.900   0.000  0.00  0.00    +0.166 HD
ATOM      4  C   UNK A   1       5.225   3.750   0.000  0.00  0.00    +0.050 A 
ATOM      5  C   UNK A   1       3.734   3.593   0.000  0.00  0.00    +0.071 A 
ATOM      6  C   UNK A   1       3.123   2.223   0.000  0.00  0.00    +0.122 A 
ATOM      9  C   UNK A   1       4.005   1.009   0.000  0.00  0.00    +0.046 A 
ATOM     10  C   UNK A   1       5.497   1.166   0.000  0.00  0.00    +0.014 A 
ATOM     11  C   UNK A   1       6.107   2.537   0.000  0.00  0.00    +0.003 A 
ATOM     12  C   UNK A   1       8.833   5.250   0.000  0.00  0.00    +0.147 C 
ATOM     17  N   UNK A   1      10.132   4.500   0.000  0.00  0.00    -0.276 N 
ATOM     18  C   PRO A   2      11.431   5.250   0.000  0.00  0.00    +0.237 C 
ATOM     19  O   PRO A   2      11.431   6.750   0.000  0.00  0.00    -0.274 OA
ATOM     20  CA  PRO A   2      12.730   4.500   0.000  0.00  0.00    +0.162 C 
ATOM     21  CB  PRO A   2      14.156   4.963   0.000  0.00  0.00    +0.033 C 
ATOM     22  CG  PRO A   2      15.038   3.750   0.000  0.00  0.00    +0.021 C 
ATOM     23  CD  PRO A   2      14.156   2.537   0.000  0.00  0.00    +0.109 C 
ATOM     24  N   PRO A   2      12.730   3.000   0.000  0.00  0.00    -0.288 N 
ATOM     25  C   UNK A   1      11.431   2.250   0.000  0.00  0.00    +0.237 C 
ATOM     26  O   UNK A   1      11.431   0.750   0.000  0.00  0.00    -0.274 OA
ATOM     27  C   UNK A   1      10.132   3.000   0.000  0.00  0.00    +0.167 C 
ATOM     28  C   UNK A   1       8.833   2.250   0.000  0.00  0.00    +0.069 C 
ATOM     29  C   UNK A   1       7.534   3.000   0.000  0.00  0.00    -0.015 A 
ENDROOT
BRANCH  12  13
ATOM     13  C   UNK A   1       8.833   6.750   0.000  0.00  0.00    +0.000 C 
ATOM     14  C   UNK A   1       7.534   7.500   0.000  0.00  0.00    -0.078 C 
ATOM     15  C   UNK A   1       6.235   6.750   0.000  0.00  0.00    +0.038 C 
ATOM     16  C   UNK A   1       7.534   9.000   0.000  0.00  0.00    +0.038 C 
ENDBRANCH  12  13
BRANCH   6   7
ATOM      7  O   UNK A   1       1.632   2.066   0.000  0.00  0.00    -0.495 OA
ATOM      8  C   UNK A   1       0.750   3.280   0.000  0.00  0.00    +0.277 C 
ENDBRANCH   6   7
TORSDOF 2