REMARK  Name = NSC 67574#1
REMARK  18 active torsions:
REMARK  status: ('A' for Active; 'I' for Inactive)
REMARK    1  A    between atoms: C_6  and  O_7
REMARK    2  A    between atoms: O_7  and  C_8
REMARK    3  A    between atoms: C_9  and  C_11
REMARK    4  A    between atoms: C_11  and  C_12
REMARK    5  A    between atoms: C_12  and  O_13
REMARK    6  A    between atoms: O_13  and  C_14
REMARK    7  A    between atoms: C_29  and  O_30
REMARK    8  A    between atoms: C_29  and  C_31
REMARK    9  A    between atoms: C_31  and  C_32
REMARK   10  A    between atoms: C_45  and  C_46
REMARK   11  A    between atoms: C_46  and  C_47
REMARK   12  A    between atoms: C_48  and  O_49
REMARK   13  A    between atoms: O_49  and  C_50
REMARK   14  A    between atoms: C_50  and  C_51
REMARK   15  A    between atoms: C_53  and  C_54
REMARK   16  A    between atoms: C_53  and  O_58
REMARK   17  A    between atoms: C_54  and  O_55
REMARK   18  A    between atoms: O_55  and  C_56
REMARK                            x       y       z     vdW  Elec       q    Type
REMARK                         _______ _______ _______ _____ _____    ______ ____
ROOT
ATOM      1  N   UNL     1       9.996 -10.730   0.000  0.00  0.00    -0.266 N 
ATOM      2  C   UNL     1       9.532 -12.157   0.000  0.00  0.00    +0.333 C 
ATOM      3  O   UNL     1       8.065 -12.469   0.000  0.00  0.00    -0.279 OA
ATOM      4  C   UNL     1       9.114  -9.517   0.000  0.00  0.00    +0.044 A 
ATOM      5  C   UNL     1       7.622  -9.360   0.000  0.00  0.00    +0.069 A 
ATOM      6  C   UNL     1       7.012  -7.989   0.000  0.00  0.00    +0.126 A 
ATOM      9  C   UNL     1       7.894  -6.776   0.000  0.00  0.00    +0.017 A 
ATOM     10  C   UNL     1       9.385  -6.933   0.000  0.00  0.00    +0.014 A 
ATOM     39  C   UNL     1       9.996  -8.303   0.000  0.00  0.00    -0.016 A 
ATOM     40  C   UNL     1      11.422  -8.767   0.000  0.00  0.00    +0.037 C 
ATOM     41  C   UNL     1      10.361  -7.706   0.000  0.00  0.00    +0.030 C 
ATOM     42  C   UNL     1      11.111  -6.407   0.000  0.00  0.00    +0.086 C 
ATOM     43  N   UNL     1      12.721  -6.517   0.000  0.00  0.00    -0.294 NA
ATOM     44  C   UNL     1      14.020  -5.767   0.000  0.00  0.00    +0.111 C 
ATOM     45  C   UNL     1      15.319  -6.517   0.000  0.00  0.00    -0.015 C 
ATOM     46  C   UNL     1      15.319  -8.017   0.000  0.00  0.00    -0.018 C 
ATOM     47  C   UNL     1      14.020  -8.767   0.000  0.00  0.00    +0.045 C 
ATOM     50  C   UNL     1      14.020 -10.267   0.000  0.00  0.00    +0.232 C 
ATOM     55  C   UNL     1      12.721 -11.017   0.000  0.00  0.00    +0.220 C 
ATOM     62  C   UNL     1      12.721  -8.017   0.000  0.00  0.00    +0.083 C 
ATOM     63  C   UNL     1      11.422 -10.267   0.000  0.00  0.00    +0.140 C 
ENDROOT
BRANCH   9  11
ATOM     11  C   UNL     1       7.284  -5.406   0.000  0.00  0.00    +0.136 C 
ATOM     16  C   UNL     1       7.179  -3.909   0.000  0.00  0.00    +0.042 A 
ATOM     17  N   UNL     1       8.221  -2.830   0.000  0.00  0.00    -0.357 N 
ATOM     18  H   UNL     1       9.196  -2.967   0.000  0.00  0.00    +0.166 HD
ATOM     19  C   UNL     1       7.517  -1.506   0.000  0.00  0.00    +0.047 A 
ATOM     20  C   UNL     1       8.030  -0.096   0.000  0.00  0.00    +0.026 A 
ATOM     21  C   UNL     1       7.066   1.053   0.000  0.00  0.00    +0.002 A 
ATOM     22  C   UNL     1       5.588   0.792   0.000  0.00  0.00    +0.001 A 
ATOM     23  C   UNL     1       5.075  -0.617   0.000  0.00  0.00    +0.010 A 
ATOM     24  C   UNL     1       6.040  -1.766   0.000  0.00  0.00    +0.003 A 
ATOM     25  C   UNL     1       5.831  -3.252   0.000  0.00  0.00    -0.016 A 
ATOM     26  C   UNL     1       5.417  -1.810   0.000  0.00  0.00    +0.053 C 
ATOM     27  C   UNL     1       3.918  -1.758   0.000  0.00  0.00    +0.089 C 
ATOM     28  N   UNL     1       3.405  -3.167   0.000  0.00  0.00    -0.299 NA
ATOM     29  C   UNL     1       2.039  -3.787   0.000  0.00  0.00    +0.119 C 
ATOM     30  C   UNL     1       1.955  -5.284   0.000  0.00  0.00    +0.079 C 
ATOM     35  C   UNL     1       3.244  -6.052   0.000  0.00  0.00    +0.041 C 
ATOM     36  C   UNL     1       4.692  -5.587   0.000  0.00  0.00    +0.008 C 
ATOM     37  C   UNL     1       4.587  -4.090   0.000  0.00  0.00    +0.088 C 
ATOM     38  C   UNL     1       6.040  -6.244   0.000  0.00  0.00    +0.034 C 
BRANCH  11  12
ATOM     12  C   UNL     1       8.739  -5.043   0.000  0.00  0.00    +0.323 C 
ATOM     15  O   UNL     1       9.781  -6.122   0.000  0.00  0.00    -0.249 OA
BRANCH  12  13
ATOM     13  O   UNL     1       9.152  -3.601   0.000  0.00  0.00    -0.467 OA
ATOM     14  C   UNL     1      10.608  -3.238   0.000  0.00  0.00    +0.280 C 
ENDBRANCH  12  13
ENDBRANCH  11  12
BRANCH  30  31
ATOM     31  O   UNL     1       0.490  -4.962   0.000  0.00  0.00    -0.387 OA
ATOM     32  H   UNL     1       0.197  -4.038   0.000  0.00  0.00    +0.210 HD
ENDBRANCH  30  31
BRANCH  30  33
ATOM     33  C   UNL     1       1.403  -6.679   0.000  0.00  0.00    +0.032 C 
ATOM     34  C   UNL     1      -0.081  -6.898   0.000  0.00  0.00    +0.007 C 
ENDBRANCH  30  33
ENDBRANCH   9  11
BRANCH   6   7
ATOM      7  O   UNL     1       5.520  -7.833   0.000  0.00  0.00    -0.495 OA
ATOM      8  C   UNL     1       4.638  -9.046   0.000  0.00  0.00    +0.277 C 
ENDBRANCH   6   7
BRANCH  47  48
ATOM     48  C   UNL     1      15.319  -9.517   0.000  0.00  0.00    +0.013 C 
ATOM     49  C   UNL     1      16.618  -8.767   0.000  0.00  0.00    +0.005 C 
ENDBRANCH  47  48
BRANCH  55  56
ATOM     56  C   UNL     1      13.685 -12.166   0.000  0.00  0.00    +0.345 C 
ATOM     59  O   UNL     1      15.163 -11.905   0.000  0.00  0.00    -0.247 OA
BRANCH  56  57
ATOM     57  O   UNL     1      13.172 -13.575   0.000  0.00  0.00    -0.466 OA
ATOM     58  C   UNL     1      11.695 -13.836   0.000  0.00  0.00    +0.280 C 
ENDBRANCH  56  57
ENDBRANCH  55  56
BRANCH  55  60
ATOM     60  O   UNL     1      11.757 -12.166   0.000  0.00  0.00    -0.373 OA
ATOM     61  H   UNL     1      10.802 -11.997   0.000  0.00  0.00    +0.211 HD
ENDBRANCH  55  60
BRANCH  50  51
ATOM     51  O   UNL     1      15.319 -11.017   0.000  0.00  0.00    -0.457 OA
BRANCH  51  52
ATOM     52  C   UNL     1      16.797 -10.756   0.000  0.00  0.00    +0.304 C 
ATOM     53  C   UNL     1      17.310  -9.347   0.000  0.00  0.00    +0.136 C 
ATOM     54  O   UNL     1      17.761 -11.905   0.000  0.00  0.00    -0.251 OA
ENDBRANCH  51  52
ENDBRANCH  50  51
TORSDOF 12