REMARK  Name = NSC 332876
REMARK  8 active torsions:
REMARK  status: ('A' for Active; 'I' for Inactive)
REMARK    1  A    between atoms: C_2  and  C_3
REMARK    2  A    between atoms: C_3  and  C_4
REMARK    3  A    between atoms: C_4  and  C_5
REMARK    4  A    between atoms: C_5  and  O_6
REMARK    5  A    between atoms: C_7  and  C_8
REMARK    6  A    between atoms: C_11  and  C_12
REMARK    7  A    between atoms: C_11  and  C_13
REMARK    8  A    between atoms: C_20  and  C_21
REMARK                            x       y       z     vdW  Elec       q    Type
REMARK                         _______ _______ _______ _____ _____    ______ ____
ROOT
ATOM      5  C   UNL     1      -1.017  -7.531   0.000  0.00  0.00    +0.081 C 
ATOM      8  C   UNL     1       0.425  -7.118   0.000  0.00  0.00    +0.001 C 
ATOM      9  C   UNL     1       0.062  -8.573   0.000  0.00  0.00    +0.014 C 
ATOM     10  C   UNL     1       0.787  -5.662   0.000  0.00  0.00    +0.010 C 
ATOM     11  C   UNL     1       2.229  -5.249   0.000  0.00  0.00    -0.031 C 
ATOM     12  C   UNL     1       1.572  -3.901   0.000  0.00  0.00    +0.011 C 
ATOM     13  C   UNL     1       3.443  -4.367   0.000  0.00  0.00    +0.011 C 
ATOM     14  C   UNL     1       3.308  -6.291   0.000  0.00  0.00    +0.007 C 
ATOM     15  C   UNL     1       2.946  -7.747   0.000  0.00  0.00    +0.001 C 
ATOM     16  C   UNL     1      -0.291  -4.620   0.000  0.00  0.00    +0.079 C 
ATOM     17  C   UNL     1      -1.733  -5.034   0.000  0.00  0.00    +0.139 C 
ATOM     18  O   UNL     1      -2.812  -3.992   0.000  0.00  0.00    -0.297 OA
ATOM     19  C   UNL     1       1.504  -8.160   0.000  0.00  0.00    +0.010 C 
ATOM     20  C   UNL     1      -2.096  -6.489   0.000  0.00  0.00    +0.084 C 
ATOM     21  C   UNL     1      -3.538  -6.903   0.000  0.00  0.00    +0.018 C 
ENDROOT
BRANCH   5   6
ATOM      6  O   UNL     1      -0.360  -8.880   0.000  0.00  0.00    -0.387 OA
ATOM      7  H   UNL     1      -0.902  -9.684   0.000  0.00  0.00    +0.210 HD
ENDBRANCH   5   6
BRANCH   5   4
ATOM      4  C   UNL     1      -2.231  -8.413   0.000  0.00  0.00    +0.041 C 
BRANCH   4   3
ATOM      3  C   UNL     1      -2.074  -9.905   0.000  0.00  0.00    +0.041 C 
BRANCH   3   2
ATOM      1  C   UNL     1      -3.288 -12.287   0.000  0.00  0.00    +0.044 A 
ATOM      2  C   UNL     1      -3.288 -10.787   0.000  0.00  0.00    -0.010 A 
ATOM     22  C   UNL     1      -4.714 -10.323   0.000  0.00  0.00    +0.198 A 
ATOM     23  O   UNL     1      -5.596 -11.537   0.000  0.00  0.00    -0.471 OA
ATOM     24  C   UNL     1      -4.714 -12.750   0.000  0.00  0.00    +0.195 A 
ENDBRANCH   3   2
ENDBRANCH   4   3
ENDBRANCH   5   4
TORSDOF 4