REMARK  Name = NSC 269148
REMARK  12 active torsions:
REMARK  status: ('A' for Active; 'I' for Inactive)
REMARK    1  A    between atoms: C_1  and  N_2
REMARK    2  A    between atoms: N_2  and  C_3
REMARK    3  A    between atoms: N_2  and  C_4
REMARK    4  A    between atoms: C_5  and  O_6
REMARK    5  A    between atoms: C_7  and  C_8
REMARK    6  A    between atoms: C_11  and  O_12
REMARK    7  A    between atoms: C_16  and  O_17
REMARK    8  A    between atoms: C_19  and  O_20
REMARK    9  A    between atoms: O_20  and  C_21
REMARK   10  A    between atoms: C_23  and  O_24
REMARK   11  A    between atoms: C_23  and  C_25
REMARK   12  A    between atoms: C_39  and  O_40
REMARK                            x       y       z     vdW  Elec       q    Type
REMARK                         _______ _______ _______ _____ _____    ______ ____
ROOT
ATOM      1  C   UNL     1       4.922   2.525   0.000  0.00  0.00    +0.123 C 
ATOM      5  C   UNL     1       4.922   1.025   0.000  0.00  0.00    +0.170 C 
ATOM      8  C   UNL     1       6.221   0.275   0.000  0.00  0.00    +0.126 C 
ATOM      9  C   UNL     1       5.471  -1.025   0.000  0.00  0.00    +0.050 C 
ATOM     10  C   UNL     1       7.520  -0.475   0.000  0.00  0.00    +0.033 A 
ATOM     11  C   UNL     1       7.520  -1.976   0.000  0.00  0.00    +0.056 A 
ATOM     12  C   UNL     1       8.819  -2.725   0.000  0.00  0.00    +0.129 A 
ATOM     15  C   UNL     1      10.118  -1.976   0.000  0.00  0.00    +0.078 A 
ATOM     16  C   UNL     1      11.417  -2.725   0.000  0.00  0.00    +0.202 C 
ATOM     17  C   UNL     1      12.716  -1.976   0.000  0.00  0.00    +0.075 A 
ATOM     18  C   UNL     1      14.015  -2.725   0.000  0.00  0.00    +0.134 A 
ATOM     21  C   UNL     1      15.314  -1.976   0.000  0.00  0.00    +0.027 A 
ATOM     22  C   UNL     1      16.613  -2.725   0.000  0.00  0.00    +0.154 C 
ATOM     25  C   UNL     1      17.912  -1.976   0.000  0.00  0.00    +0.071 C 
ATOM     26  C   UNL     1      17.912  -0.475   0.000  0.00  0.00    +0.070 C 
ATOM     29  C   UNL     1      18.425   0.934   0.000  0.00  0.00    +0.042 C 
ATOM     30  C   UNL     1      16.613   0.275   0.000  0.00  0.00    +0.070 C 
ATOM     31  C   UNL     1      15.314  -0.475   0.000  0.00  0.00    -0.035 A 
ATOM     32  C   UNL     1      14.015   0.275   0.000  0.00  0.00    +0.016 A 
ATOM     33  C   UNL     1      12.716  -0.475   0.000  0.00  0.00    +0.037 A 
ATOM     34  C   UNL     1      11.417   0.275   0.000  0.00  0.00    +0.198 C 
ATOM     35  O   UNL     1      11.417   1.775   0.000  0.00  0.00    -0.286 OA
ATOM     36  O   UNL     1      11.417  -4.226   0.000  0.00  0.00    -0.286 OA
ATOM     37  C   UNL     1      10.118  -0.475   0.000  0.00  0.00    +0.079 A 
ATOM     38  C   UNL     1       8.819   0.275   0.000  0.00  0.00    +0.142 A 
ATOM     39  O   UNL     1       8.819   1.775   0.000  0.00  0.00    -0.460 OA
ATOM     40  C   UNL     1       7.520   2.525   0.000  0.00  0.00    +0.339 C 
ATOM     41  O   UNL     1       6.221   1.775   0.000  0.00  0.00    -0.326 OA
ATOM     42  C   UNL     1       6.221   3.275   0.000  0.00  0.00    +0.202 C 
ENDROOT
BRANCH   1   2
ATOM      2  N   UNL     1       3.623   3.275   0.000  0.00  0.00    -0.301 NA
ATOM      3  C   UNL     1       3.623   4.774   0.000  0.00  0.00    +0.105 C 
ATOM      4  C   UNL     1       2.324   2.525   0.000  0.00  0.00    +0.105 C 
ENDBRANCH   1   2
BRANCH   5   6
ATOM      6  O   UNL     1       3.623   0.275   0.000  0.00  0.00    -0.387 OA
ATOM      7  H   UNL     1       2.783   0.759   0.000  0.00  0.00    +0.210 HD
ENDBRANCH   5   6
BRANCH  12  13
ATOM     13  O   UNL     1       8.819  -4.226   0.000  0.00  0.00    -0.506 OA
ATOM     14  H   UNL     1       8.007  -4.694   0.000  0.00  0.00    +0.292 HD
ENDBRANCH  12  13
BRANCH  18  19
ATOM     19  O   UNL     1      14.015  -4.226   0.000  0.00  0.00    -0.506 OA
ATOM     20  H   UNL     1      13.203  -4.694   0.000  0.00  0.00    +0.292 HD
ENDBRANCH  18  19
BRANCH  22  23
ATOM     23  O   UNL     1      16.613  -4.226   0.000  0.00  0.00    -0.375 OA
ATOM     24  C   UNL     1      15.314  -4.976   0.000  0.00  0.00    +0.194 C 
ENDBRANCH  22  23
BRANCH  26  27
ATOM     27  O   UNL     1      19.389  -0.736   0.000  0.00  0.00    -0.388 OA
ATOM     28  H   UNL     1      19.721  -1.647   0.000  0.00  0.00    +0.210 HD
ENDBRANCH  26  27
BRANCH  42  43
ATOM     43  O   UNL     1       6.221   4.774   0.000  0.00  0.00    -0.384 OA
ATOM     44  H   UNL     1       7.061   5.260   0.000  0.00  0.00    +0.210 HD
ENDBRANCH  42  43
TORSDOF 7