REMARK  Name = NSC 122224
REMARK  19 active torsions:
REMARK  status: ('A' for Active; 'I' for Inactive)
REMARK    1  A    between atoms: C_3  and  C_4
REMARK    2  A    between atoms: C_4  and  C_5
REMARK    3  A    between atoms: C_4  and  C_6
REMARK    4  A    between atoms: C_10  and  C_11
REMARK    5  A    between atoms: C_15  and  C_16
REMARK    6  A    between atoms: C_16  and  C_17
REMARK    7  A    between atoms: C_17  and  C_18
REMARK    8  A    between atoms: C_17  and  C_19
REMARK    9  A    between atoms: N_20  and  C_21
REMARK   10  A    between atoms: C_23  and  C_24
REMARK   11  A    between atoms: C_24  and  C_25
REMARK   12  A    between atoms: C_24  and  C_26
REMARK   13  A    between atoms: C_29  and  C_30
REMARK   14  A    between atoms: C_30  and  C_31
REMARK   15  A    between atoms: C_30  and  C_32
REMARK   16  A    between atoms: C_35  and  C_36
REMARK   17  A    between atoms: C_36  and  C_37
REMARK   18  A    between atoms: C_37  and  C_38
REMARK   19  A    between atoms: C_37  and  C_39
REMARK                            x       y       z     vdW  Elec       q    Type
REMARK                         _______ _______ _______ _____ _____    ______ ____
ROOT
ATOM      1  O   UNL     1       0.184   4.626   0.000  0.00  0.00    -0.274 OA
ATOM      2  C   UNL     1       1.244   5.687   0.000  0.00  0.00    +0.234 C 
ATOM      3  C   UNL     1       0.670   7.073   0.000  0.00  0.00    +0.161 C 
ATOM      7  N   UNL     1       1.244   8.459   0.000  0.00  0.00    -0.304 N 
ATOM      8  C   UNL     1       2.630   9.033   0.000  0.00  0.00    +0.214 C 
ATOM      9  C   UNL     1       4.016   8.459   0.000  0.00  0.00    +0.102 C 
ATOM     10  C   UNL     1       4.929   9.649   0.000  0.00  0.00    +0.032 C 
ATOM     11  C   UNL     1       4.355  11.035   0.000  0.00  0.00    +0.011 C 
ATOM     12  C   UNL     1       6.416   9.453   0.000  0.00  0.00    +0.236 C 
ATOM     13  O   UNL     1       7.329  10.643   0.000  0.00  0.00    -0.463 OA
ATOM     14  C   UNL     1       8.816  10.447   0.000  0.00  0.00    +0.328 C 
ATOM     15  C   UNL     1       9.730  11.637   0.000  0.00  0.00    +0.185 C 
ATOM     20  N   UNL     1      11.217  11.441   0.000  0.00  0.00    -0.290 N 
ATOM     21  C   UNL     1      12.130  12.632   0.000  0.00  0.00    +0.133 C 
ATOM     22  C   UNL     1      11.791  10.056   0.000  0.00  0.00    +0.237 C 
ATOM     23  C   UNL     1      10.878   8.866   0.000  0.00  0.00    +0.162 C 
ATOM     27  N   UNL     1       9.390   9.061   0.000  0.00  0.00    -0.301 N 
ATOM     28  C   UNL     1       8.477   7.871   0.000  0.00  0.00    +0.255 C 
ATOM     29  C   UNL     1       6.990   8.067   0.000  0.00  0.00    +0.264 C 
ATOM     33  O   UNL     1       6.077   6.877   0.000  0.00  0.00    -0.450 OA
ATOM     34  C   UNL     1       4.590   7.073   0.000  0.00  0.00    +0.328 C 
ATOM     35  C   UNL     1       4.016   5.687   0.000  0.00  0.00    +0.182 C 
ATOM     40  O   UNL     1       5.340   5.774   0.000  0.00  0.00    -0.249 OA
ATOM     41  O   UNL     1       9.051   6.486   0.000  0.00  0.00    -0.272 OA
ATOM     42  H   UNL     1       9.965   7.676   0.000  0.00  0.00    +0.150 HD
ATOM     43  O   UNL     1      13.278   9.860   0.000  0.00  0.00    -0.274 OA
ATOM     44  O   UNL     1       8.242  11.833   0.000  0.00  0.00    -0.249 OA
ATOM     45  O   UNL     1       2.630  10.533   0.000  0.00  0.00    -0.276 OA
ATOM     46  H   UNL     1       0.184   9.519   0.000  0.00  0.00    +0.149 HD
ATOM     47  N   UNL     1       2.630   5.113   0.000  0.00  0.00    -0.301 N 
ATOM     48  H   UNL     1       2.630   3.613   0.000  0.00  0.00    +0.150 HD
ENDROOT
BRANCH   3   4
ATOM      4  C   UNL     1      -0.830   7.073   0.000  0.00  0.00    +0.012 C 
ATOM      5  C   UNL     1      -1.580   8.372   0.000  0.00  0.00    +0.009 C 
ATOM      6  C   UNL     1      -1.580   5.774   0.000  0.00  0.00    +0.009 C 
ENDBRANCH   3   4
BRANCH  23  24
ATOM     24  C   UNL     1      11.452   7.480   0.000  0.00  0.00    +0.012 C 
ATOM     25  C   UNL     1      12.939   7.284   0.000  0.00  0.00    +0.009 C 
ATOM     26  C   UNL     1      10.539   6.290   0.000  0.00  0.00    +0.009 C 
ENDBRANCH  23  24
BRANCH  29  30
ATOM     30  C   UNL     1       7.526   5.651   0.000  0.00  0.00    +0.033 C 
ATOM     31  C   UNL     1       6.420   4.637   0.000  0.00  0.00    +0.011 C 
ATOM     32  C   UNL     1       8.957   5.200   0.000  0.00  0.00    +0.011 C 
ENDBRANCH  29  30
BRANCH  15  16
ATOM     16  C   UNL     1       9.156  13.023   0.000  0.00  0.00    +0.037 C 
BRANCH  16  17
ATOM     17  C   UNL     1       7.668  13.219   0.000  0.00  0.00    -0.015 C 
ATOM     18  C   UNL     1       7.094  14.605   0.000  0.00  0.00    +0.007 C 
ATOM     19  C   UNL     1       6.755  12.029   0.000  0.00  0.00    +0.007 C 
ENDBRANCH  16  17
ENDBRANCH  15  16
BRANCH  35  36
ATOM     36  C   UNL     1       5.077   4.626   0.000  0.00  0.00    +0.036 C 
BRANCH  36  37
ATOM     37  C   UNL     1       4.688   3.178   0.000  0.00  0.00    -0.015 C 
ATOM     38  C   UNL     1       5.749   2.117   0.000  0.00  0.00    +0.007 C 
ATOM     39  C   UNL     1       3.240   2.789   0.000  0.00  0.00    +0.007 C 
ENDBRANCH  36  37
ENDBRANCH  35  36
TORSDOF 7