REMARK  Name = NSC 785179
REMARK  6 active torsions:
REMARK  status: ('A' for Active; 'I' for Inactive)
REMARK    1  A    between atoms: C_1  and  O_2
REMARK    2  A    between atoms: O_2  and  C_3
REMARK    3  A    between atoms: C_12  and  O_13
REMARK    4  A    between atoms: O_13  and  C_14
REMARK    5  A    between atoms: C_15  and  O_16
REMARK    6  A    between atoms: N_22  and  C_23
REMARK                            x       y       z     vdW  Elec       q    Type
REMARK                         _______ _______ _______ _____ _____    ______ ____
ROOT
ATOM      1  C   UNL     1      -1.537  10.818   0.000  0.00  0.00    +0.169 A 
ATOM      4  C   UNL     1      -2.837  10.070   0.000  0.00  0.00    +0.208 A 
ATOM      5  O   UNL     1      -4.263  10.535   0.000  0.00  0.00    -0.449 OA
ATOM      6  C   UNL     1      -5.146   9.322   0.000  0.00  0.00    +0.467 C 
ATOM      7  O   UNL     1      -4.265   8.108   0.000  0.00  0.00    -0.452 OA
ATOM      8  C   UNL     1      -2.838   8.570   0.000  0.00  0.00    +0.178 A 
ATOM      9  C   UNL     1      -1.540   7.818   0.000  0.00  0.00    +0.033 A 
ATOM     10  C   UNL     1      -1.542   6.318   0.000  0.00  0.00    -0.007 A 
ATOM     11  C   UNL     1      -2.842   5.570   0.000  0.00  0.00    +0.058 A 
ATOM     12  C   UNL     1      -2.844   4.070   0.000  0.00  0.00    +0.162 A 
ATOM     15  C   UNL     1      -1.546   3.318   0.000  0.00  0.00    +0.159 A 
ATOM     18  C   UNL     1      -0.246   4.066   0.000  0.00  0.00    +0.053 A 
ATOM     19  C   UNL     1      -0.244   5.566   0.000  0.00  0.00    -0.034 A 
ATOM     20  C   UNL     1       1.056   6.315   0.000  0.00  0.00    +0.059 C 
ATOM     21  C   UNL     1       1.058   7.815   0.000  0.00  0.00    +0.092 C 
ATOM     22  N   UNL     1       2.358   8.563   0.000  0.00  0.00    -0.298 NA
ATOM     23  C   UNL     1       3.656   7.812   0.000  0.00  0.00    +0.105 C 
ATOM     24  C   UNL     1       2.360  10.063   0.000  0.00  0.00    +0.089 C 
ATOM     25  C   UNL     1       1.062  10.815   0.000  0.00  0.00    +0.054 C 
ATOM     26  C   UNL     1      -0.240   8.566   0.000  0.00  0.00    -0.012 A 
ATOM     27  C   UNL     1      -0.238  10.066   0.000  0.00  0.00    +0.005 A 
ENDROOT
BRANCH   1   2
ATOM      2  O   UNL     1      -1.535  12.318   0.000  0.00  0.00    -0.491 OA
ATOM      3  C   UNL     1      -0.235  13.066   0.000  0.00  0.00    +0.277 C 
ENDBRANCH   1   2
BRANCH  12  13
ATOM     13  O   UNL     1      -4.144   3.321   0.000  0.00  0.00    -0.491 OA
ATOM     14  C   UNL     1      -5.442   4.073   0.000  0.00  0.00    +0.277 C 
ENDBRANCH  12  13
BRANCH  15  16
ATOM     16  O   UNL     1      -1.547   1.818   0.000  0.00  0.00    -0.503 OA
ATOM     17  H   UNL     1      -2.359   1.350   0.000  0.00  0.00    +0.292 HD
ENDBRANCH  15  16
TORSDOF 3