REMARK  Name = NSC 58368#1
REMARK  2 active torsions:
REMARK  status: ('A' for Active; 'I' for Inactive)
REMARK    1  A    between atoms: N_1  and  C_3
REMARK    2  A    between atoms: N_1  and  C_9
REMARK                            x       y       z     vdW  Elec       q    Type
REMARK                         _______ _______ _______ _____ _____    ______ ____
ROOT
ATOM      1  N   UNL     1      -3.131  18.481   0.000  0.00  0.00    -0.311 NA
ATOM      2  H   UNL     1      -4.430  19.231   0.000  0.00  0.00    +0.122 HD
ENDROOT
BRANCH   1   3
ATOM      3  C   UNL     1      -1.832  19.231   0.000  0.00  0.00    +0.054 C 
ATOM      4  C   UNL     1      -0.533  18.481   0.000  0.00  0.00    +0.019 C 
ATOM      5  C   UNL     1       0.766  19.231   0.000  0.00  0.00    +0.002 C 
ATOM      6  C   UNL     1       0.766  20.731   0.000  0.00  0.00    +0.000 C 
ATOM      7  C   UNL     1      -0.533  21.481   0.000  0.00  0.00    +0.002 C 
ATOM      8  C   UNL     1      -1.832  20.731   0.000  0.00  0.00    +0.019 C 
ENDBRANCH   1   3
BRANCH   1   9
ATOM      9  C   UNL     1      -3.131  16.981   0.000  0.00  0.00    +0.054 C 
ATOM     10  C   UNL     1      -1.832  16.231   0.000  0.00  0.00    +0.019 C 
ATOM     11  C   UNL     1      -1.832  14.731   0.000  0.00  0.00    +0.002 C 
ATOM     12  C   UNL     1      -3.131  13.981   0.000  0.00  0.00    +0.000 C 
ATOM     13  C   UNL     1      -4.430  14.731   0.000  0.00  0.00    +0.002 C 
ATOM     14  C   UNL     1      -4.430  16.231   0.000  0.00  0.00    +0.019 C 
ENDBRANCH   1   9
TORSDOF 2