REMARK  Name = NSC 266071
REMARK  12 active torsions:
REMARK  status: ('A' for Active; 'I' for Inactive)
REMARK    1  A    between atoms: O_1  and  C_2
REMARK    2  A    between atoms: O_1  and  C_5
REMARK    3  A    between atoms: C_2  and  C_3
REMARK    4  A    between atoms: C_6  and  O_25
REMARK    5  A    between atoms: C_7  and  O_8
REMARK    6  A    between atoms: O_8  and  C_9
REMARK    7  A    between atoms: C_9  and  C_10
REMARK    8  A    between atoms: C_12  and  C_13
REMARK    9  A    between atoms: C_16  and  C_17
REMARK   10  A    between atoms: C_23  and  C_24
REMARK   11  A    between atoms: O_25  and  C_26
REMARK   12  A    between atoms: C_26  and  C_27
REMARK                            x       y       z     vdW  Elec       q    Type
REMARK                         _______ _______ _______ _____ _____    ______ ____
ROOT
ATOM      5  C   UNL     1      -1.561   0.706   0.000  0.00  0.00    +0.224 C 
ATOM      6  C   UNL     1      -1.916  -0.752   0.000  0.00  0.00    +0.258 C 
ATOM      7  C   UNL     1      -0.640  -1.540   0.000  0.00  0.00    +0.227 C 
ATOM     12  C   UNL     1       0.504  -0.570   0.000  0.00  0.00    +0.016 C 
ATOM     13  C   UNL     1       0.816  -2.037   0.000  0.00  0.00    +0.015 C 
ATOM     14  C   UNL     1       1.944  -0.990   0.000  0.00  0.00    +0.018 C 
ATOM     15  C   UNL     1       3.170  -0.126   0.000  0.00  0.00    +0.044 C 
ATOM     16  C   UNL     1       4.567  -0.674   0.000  0.00  0.00    +0.101 C 
ATOM     17  C   UNL     1       4.944  -2.125   0.000  0.00  0.00    +0.019 C 
ATOM     18  C   UNL     1       5.519   0.485   0.000  0.00  0.00    +0.311 C 
ATOM     19  O   UNL     1       7.016   0.396   0.000  0.00  0.00    -0.251 OA
ATOM     20  O   UNL     1       4.711   1.749   0.000  0.00  0.00    -0.461 OA
ATOM     21  C   UNL     1       3.260   1.371   0.000  0.00  0.00    +0.181 C 
ATOM     22  C   UNL     1       2.145   2.375   0.000  0.00  0.00    +0.048 C 
ATOM     23  C   UNL     1       0.665   2.128   0.000  0.00  0.00    -0.003 C 
ATOM     24  C   UNL     1      -0.199   3.355   0.000  0.00  0.00    +0.008 C 
ATOM     29  C   UNL     1      -0.065   0.818   0.000  0.00  0.00    +0.046 C 
ENDROOT
BRANCH   5   1
ATOM      1  O   UNL     1      -2.715   1.664   0.000  0.00  0.00    -0.457 OA
BRANCH   1   2
ATOM      2  C   UNL     1      -2.462   3.142   0.000  0.00  0.00    +0.304 C 
ATOM      3  C   UNL     1      -1.056   3.663   0.000  0.00  0.00    +0.136 C 
ATOM      4  O   UNL     1      -3.617   4.100   0.000  0.00  0.00    -0.251 OA
ENDBRANCH   1   2
ENDBRANCH   5   1
BRANCH   7   8
ATOM      8  O   UNL     1      -0.527  -3.036   0.000  0.00  0.00    -0.457 OA
BRANCH   8   9
ATOM      9  C   UNL     1      -1.767  -3.881   0.000  0.00  0.00    +0.304 C 
ATOM     10  C   UNL     1      -1.654  -5.377   0.000  0.00  0.00    +0.136 C 
ATOM     11  O   UNL     1      -3.118  -3.231   0.000  0.00  0.00    -0.251 OA
ENDBRANCH   8   9
ENDBRANCH   7   8
BRANCH   6  25
ATOM     25  O   UNL     1      -3.304  -1.321   0.000  0.00  0.00    -0.454 OA
BRANCH  25  26
ATOM     26  C   UNL     1      -4.491  -0.404   0.000  0.00  0.00    +0.304 C 
ATOM     27  C   UNL     1      -5.879  -0.973   0.000  0.00  0.00    +0.136 C 
ATOM     28  O   UNL     1      -4.290   1.083   0.000  0.00  0.00    -0.251 OA
ENDBRANCH  25  26
ENDBRANCH   6  25
TORSDOF 6