REMARK  Name = NSC 35550#2
REMARK  3 active torsions:
REMARK  status: ('A' for Active; 'I' for Inactive)
REMARK    1  A    between atoms: C_1  and  C_2
REMARK    2  A    between atoms: C_1  and  O_6
REMARK    3  A    between atoms: C_2  and  O_3
REMARK                            x       y       z     vdW  Elec       q    Type
REMARK                         _______ _______ _______ _____ _____    ______ ____
ROOT
ATOM      1  C   UNL     1      -1.798 -11.136   0.000  0.00  0.00    +0.415 C 
ATOM      6  O   UNL     1      -0.499 -11.886   0.000  0.00  0.00    -0.238 OA
ENDROOT
BRANCH   1   2
ATOM      2  C   UNL     1      -3.097 -11.886   0.000  0.00  0.00    +0.415 C 
ATOM      5  O   UNL     1      -4.396 -11.136   0.000  0.00  0.00    -0.238 OA
BRANCH   2   3
ATOM      3  O   UNL     1      -3.097 -13.386   0.000  0.00  0.00    -0.473 OA
ATOM      4  H   UNL     1      -3.908 -13.855   0.000  0.00  0.00    +0.296 HD
ENDBRANCH   2   3
ENDBRANCH   1   2
BRANCH   1   7
ATOM      7  O   UNL     1      -1.798  -9.636   0.000  0.00  0.00    -0.473 OA
ATOM      8  H   UNL     1      -0.986  -9.168   0.000  0.00  0.00    +0.296 HD
ENDBRANCH   1   7
TORSDOF 3