REMARK  Name = NSC 403169
REMARK  5 active torsions:
REMARK  status: ('A' for Active; 'I' for Inactive)
REMARK    1  A    between atoms: N_1  and  C_2
REMARK    2  A    between atoms: C_11  and  O_12
REMARK    3  A    between atoms: O_12  and  C_13
REMARK    4  A    between atoms: C_19  and  C_20
REMARK    5  A    between atoms: C_19  and  C_21
REMARK                            x       y       z     vdW  Elec       q    Type
REMARK                         _______ _______ _______ _____ _____    ______ ____
ROOT
ATOM      1  N   UNL     1      -5.167  -5.349   0.000  0.00  0.00    -0.342 N 
ATOM      2  C   UNL     1      -5.167  -3.849   0.000  0.00  0.00    +0.149 C 
ATOM      3  C   UNL     1      -6.466  -6.099   0.000  0.00  0.00    +0.053 A 
ATOM      4  C   UNL     1      -7.765  -5.349   0.000  0.00  0.00    +0.026 A 
ATOM      5  C   UNL     1      -9.064  -6.099   0.000  0.00  0.00    +0.002 A 
ATOM      6  C   UNL     1      -9.064  -7.599   0.000  0.00  0.00    +0.001 A 
ATOM      7  C   UNL     1      -7.765  -8.349   0.000  0.00  0.00    +0.014 A 
ATOM      8  C   UNL     1      -6.466  -7.599   0.000  0.00  0.00    +0.046 A 
ATOM      9  C   UNL     1      -5.167  -8.349   0.000  0.00  0.00    +0.201 A 
ATOM     10  C   UNL     1      -3.868  -7.599   0.000  0.00  0.00    +0.088 A 
ATOM     11  C   UNL     1      -2.569  -8.349   0.000  0.00  0.00    +0.136 A 
ATOM     14  C   UNL     1      -1.270  -7.599   0.000  0.00  0.00    +0.092 A 
ATOM     15  C   UNL     1      -1.270  -6.099   0.000  0.00  0.00    +0.134 A 
ATOM     16  C   UNL     1      -2.569  -5.349   0.000  0.00  0.00    +0.041 A 
ATOM     17  C   UNL     1      -2.569  -3.849   0.000  0.00  0.00    +0.013 C 
ATOM     18  C   UNL     1      -1.270  -3.099   0.000  0.00  0.00    +0.020 C 
ATOM     19  C   UNL     1       0.029  -3.849   0.000  0.00  0.00    +0.124 C 
ATOM     20  C   UNL     1       1.507  -4.109   0.000  0.00  0.00    +0.060 C 
ATOM     21  C   UNL     1       0.542  -2.439   0.000  0.00  0.00    +0.060 C 
ATOM     22  O   UNL     1       0.029  -5.349   0.000  0.00  0.00    -0.481 OA
ATOM     23  O   UNL     1      -5.167  -9.849   0.000  0.00  0.00    -0.286 OA
ATOM     24  C   UNL     1      -3.868  -6.099   0.000  0.00  0.00    +0.067 A 
ENDROOT
BRANCH  11  12
ATOM     12  O   UNL     1      -2.569  -9.849   0.000  0.00  0.00    -0.494 OA
ATOM     13  C   UNL     1      -3.868 -10.599   0.000  0.00  0.00    +0.277 C 
ENDBRANCH  11  12
TORSDOF 1