REMARK  Name = NSC 785172#2
REMARK  3 active torsions:
REMARK  status: ('A' for Active; 'I' for Inactive)
REMARK    1  A    between atoms: C_1  and  O_2
REMARK    2  A    between atoms: C_1  and  C_3
REMARK    3  A    between atoms: C_3  and  O_4
REMARK                            x       y       z     vdW  Elec       q    Type
REMARK                         _______ _______ _______ _____ _____    ______ ____
ROOT
ATOM      1  C   UNL     1      -1.473 -10.949   0.000  0.00  0.00    +0.415 C 
ATOM      8  O   UNL     1      -0.174 -11.699   0.000  0.00  0.00    -0.238 OA
ENDROOT
BRANCH   1   2
ATOM      2  O   UNL     1      -1.473  -9.449   0.000  0.00  0.00    -0.473 OA
ATOM      3  H   UNL     1      -0.662  -8.980   0.000  0.00  0.00    +0.296 HD
ENDBRANCH   1   2
BRANCH   1   4
ATOM      4  C   UNL     1      -2.772 -11.699   0.000  0.00  0.00    +0.415 C 
ATOM      7  O   UNL     1      -4.071 -10.949   0.000  0.00  0.00    -0.238 OA
BRANCH   4   5
ATOM      5  O   UNL     1      -2.772 -13.199   0.000  0.00  0.00    -0.473 OA
ATOM      6  H   UNL     1      -3.584 -13.667   0.000  0.00  0.00    +0.296 HD
ENDBRANCH   4   5
ENDBRANCH   1   4
TORSDOF 3