REMARK  Name = NSC 7524
REMARK  16 active torsions:
REMARK  status: ('A' for Active; 'I' for Inactive)
REMARK    1  A    between atoms: C_3  and  O_4
REMARK    2  A    between atoms: C_5  and  O_6
REMARK    3  A    between atoms: O_6  and  C_7
REMARK    4  A    between atoms: C_7  and  C_9
REMARK    5  A    between atoms: C_12  and  O_13
REMARK    6  A    between atoms: O_13  and  C_14
REMARK    7  A    between atoms: C_15  and  O_16
REMARK    8  A    between atoms: O_16  and  C_17
REMARK    9  A    between atoms: C_25  and  O_26
REMARK   10  A    between atoms: C_28  and  O_29
REMARK   11  A    between atoms: C_30  and  O_31
REMARK   12  A    between atoms: C_38  and  C_39
REMARK   13  A    between atoms: C_43  and  C_44
REMARK   14  A    between atoms: C_43  and  O_45
REMARK   15  A    between atoms: C_46  and  O_47
REMARK   16  A    between atoms: C_51  and  C_52
REMARK                            x       y       z     vdW  Elec       q    Type
REMARK                         _______ _______ _______ _____ _____    ______ ____
ROOT
ATOM      1  C   UNL     1      11.720   3.292   0.000  0.00  0.00    +0.061 C 
ATOM      2  C   UNL     1      10.228   3.135   0.000  0.00  0.00    +0.209 C 
ATOM      5  C   UNL     1       9.347   4.349   0.000  0.00  0.00    +0.236 C 
ATOM     19  C   UNL     1       9.957   5.719   0.000  0.00  0.00    +0.051 C 
ATOM     20  C   UNL     1      11.448   5.876   0.000  0.00  0.00    +0.014 C 
ATOM     21  O   UNL     1      14.432   3.449   0.000  0.00  0.00    -0.338 OA
ATOM     22  C   UNL     1      13.822   4.819   0.000  0.00  0.00    +0.087 C 
ATOM     23  C   UNL     1      14.704   3.606   0.000  0.00  0.00    +0.056 C 
ATOM     24  C   UNL     1      14.094   2.235   0.000  0.00  0.00    +0.010 C 
ATOM     25  C   UNL     1      16.130   4.069   0.000  0.00  0.00    +0.103 C 
ATOM     28  C   UNL     1      17.429   3.319   0.000  0.00  0.00    +0.072 C 
ATOM     29  C   UNL     1      18.728   4.069   0.000  0.00  0.00    +0.152 C 
ATOM     32  C   UNL     1      18.728   5.569   0.000  0.00  0.00    +0.128 C 
ATOM     35  C   UNL     1      17.429   6.319   0.000  0.00  0.00    +0.075 C 
ATOM     36  C   UNL     1      17.429   7.819   0.000  0.00  0.00    +0.094 C 
ATOM     37  N   UNL     1      18.728   8.569   0.000  0.00  0.00    -0.296 NA
ATOM     38  C   UNL     1      20.027   7.819   0.000  0.00  0.00    +0.091 C 
ATOM     39  C   UNL     1      21.326   8.569   0.000  0.00  0.00    +0.022 C 
ATOM     40  C   UNL     1      21.326  10.069   0.000  0.00  0.00    +0.006 C 
ATOM     41  C   UNL     1      20.027  10.819   0.000  0.00  0.00    +0.000 C 
ATOM     42  C   UNL     1      20.027  12.319   0.000  0.00  0.00    +0.009 C 
ATOM     43  C   UNL     1      18.728  10.069   0.000  0.00  0.00    +0.088 C 
ATOM     44  C   UNL     1      20.027   6.319   0.000  0.00  0.00    +0.110 C 
ATOM     45  C   UNL     1      20.540   4.910   0.000  0.00  0.00    +0.046 C 
ATOM     48  C   UNL     1      16.130   5.569   0.000  0.00  0.00    +0.104 C 
ATOM     51  C   UNL     1      14.704   6.033   0.000  0.00  0.00    +0.074 C 
ATOM     52  C   UNL     1      12.602   2.079   0.000  0.00  0.00    +0.010 C 
ATOM     53  C   UNL     1      12.330   4.662   0.000  0.00  0.00    +0.005 C 
ATOM     54  C   UNL     1      12.940   6.033   0.000  0.00  0.00    +0.014 C 
ENDROOT
BRANCH   2   3
ATOM      3  O   UNL     1       9.598   1.775   0.000  0.00  0.00    -0.362 OA
ATOM      4  H   UNL     1       8.631   1.688   0.000  0.00  0.00    +0.213 HD
ENDBRANCH   2   3
BRANCH  25  26
ATOM     26  O   UNL     1      15.973   2.578   0.000  0.00  0.00    -0.385 OA
ATOM     27  H   UNL     1      15.087   2.183   0.000  0.00  0.00    +0.210 HD
ENDBRANCH  25  26
BRANCH  29  30
ATOM     30  O   UNL     1      20.027   3.319   0.000  0.00  0.00    -0.389 OA
ATOM     31  H   UNL     1      20.027   2.349   0.000  0.00  0.00    +0.210 HD
ENDBRANCH  29  30
BRANCH  32  33
ATOM     33  O   UNL     1      18.728   7.069   0.000  0.00  0.00    -0.383 OA
ATOM     34  H   UNL     1      19.568   7.554   0.000  0.00  0.00    +0.210 HD
ENDBRANCH  32  33
BRANCH  44  46
ATOM     46  O   UNL     1      21.505   6.580   0.000  0.00  0.00    -0.384 OA
ATOM     47  H   UNL     1      22.128   5.837   0.000  0.00  0.00    +0.210 HD
ENDBRANCH  44  46
BRANCH  48  49
ATOM     49  O   UNL     1      15.973   7.061   0.000  0.00  0.00    -0.385 OA
ATOM     50  H   UNL     1      16.758   7.631   0.000  0.00  0.00    +0.210 HD
ENDBRANCH  48  49
BRANCH   5   6
ATOM      6  O   UNL     1       7.855   4.192   0.000  0.00  0.00    -0.452 OA
BRANCH   6   7
ATOM      7  C   UNL     1       6.973   5.406   0.000  0.00  0.00    +0.340 C 
ATOM      8  O   UNL     1       7.583   6.776   0.000  0.00  0.00    -0.245 OA
BRANCH   7   9
ATOM      9  C   UNL     1       5.481   5.249   0.000  0.00  0.00    +0.063 A 
ATOM     10  C   UNL     1       4.871   3.878   0.000  0.00  0.00    +0.019 A 
ATOM     11  C   UNL     1       3.380   3.722   0.000  0.00  0.00    +0.050 A 
ATOM     12  C   UNL     1       2.498   4.935   0.000  0.00  0.00    +0.162 A 
ATOM     15  C   UNL     1       3.108   6.306   0.000  0.00  0.00    +0.162 A 
ATOM     18  C   UNL     1       4.600   6.462   0.000  0.00  0.00    +0.064 A 
BRANCH  12  13
ATOM     13  O   UNL     1       1.006   4.778   0.000  0.00  0.00    -0.491 OA
ATOM     14  C   UNL     1       0.124   5.992   0.000  0.00  0.00    +0.277 C 
ENDBRANCH  12  13
BRANCH  15  16
ATOM     16  O   UNL     1       2.226   7.519   0.000  0.00  0.00    -0.491 OA
ATOM     17  C   UNL     1       0.734   7.362   0.000  0.00  0.00    +0.277 C 
ENDBRANCH  15  16
ENDBRANCH   7   9
ENDBRANCH   6   7
ENDBRANCH   5   6
TORSDOF 11