REMARK  Name = NSC 361792
REMARK  9 active torsions:
REMARK  status: ('A' for Active; 'I' for Inactive)
REMARK    1  A    between atoms: C_1  and  C_2
REMARK    2  A    between atoms: N_4  and  C_6
REMARK    3  A    between atoms: C_10  and  O_11
REMARK    4  A    between atoms: O_11  and  C_12
REMARK    5  A    between atoms: C_13  and  O_14
REMARK    6  A    between atoms: O_14  and  C_15
REMARK    7  A    between atoms: C_16  and  O_17
REMARK    8  A    between atoms: C_24  and  S_25
REMARK    9  A    between atoms: S_25  and  C_26
REMARK                            x       y       z     vdW  Elec       q    Type
REMARK                         _______ _______ _______ _____ _____    ______ ____
ROOT
ATOM      6  C   UNL     1       9.210   2.676   0.000  0.00  0.00    +0.104 C 
ATOM      7  C   UNL     1       8.270   1.507   0.000  0.00  0.00    -0.016 A 
ATOM      8  C   UNL     1       8.598   0.043   0.000  0.00  0.00    -0.009 A 
ATOM      9  C   UNL     1       9.946  -0.613   0.000  0.00  0.00    +0.031 A 
ATOM     10  C   UNL     1       9.828  -2.109   0.000  0.00  0.00    +0.173 A 
ATOM     13  C   UNL     1      11.064  -2.959   0.000  0.00  0.00    +0.204 A 
ATOM     16  C   UNL     1      12.418  -2.313   0.000  0.00  0.00    +0.162 A 
ATOM     19  C   UNL     1      12.537  -0.818   0.000  0.00  0.00    +0.053 A 
ATOM     20  C   UNL     1      11.301   0.032   0.000  0.00  0.00    -0.032 A 
ATOM     21  C   UNL     1      11.640   1.493   0.000  0.00  0.00    +0.038 C 
ATOM     22  C   UNL     1       7.658  -1.126   0.000  0.00  0.00    +0.010 A 
ATOM     23  C   UNL     1       6.158  -1.120   0.000  0.00  0.00    +0.019 A 
ATOM     24  C   UNL     1       5.227   0.056   0.000  0.00  0.00    +0.054 A 
ATOM     27  C   UNL     1       5.567   1.517   0.000  0.00  0.00    +0.193 A 
ATOM     28  O   UNL     1       4.398   2.457   0.000  0.00  0.00    -0.287 OA
ATOM     29  C   UNL     1       6.921   2.163   0.000  0.00  0.00    +0.058 A 
ATOM     30  C   UNL     1      10.710   2.670   0.000  0.00  0.00    +0.032 C 
ENDROOT
BRANCH   6   4
ATOM      1  C   UNL     1       8.768   6.620   0.000  0.00  0.00    +0.109 C 
ATOM      2  C   UNL     1       9.414   5.266   0.000  0.00  0.00    +0.210 C 
ATOM      3  O   UNL     1      10.909   5.148   0.000  0.00  0.00    -0.276 OA
ATOM      4  N   UNL     1       8.564   4.029   0.000  0.00  0.00    -0.309 N 
ATOM      5  H   UNL     1       7.069   4.148   0.000  0.00  0.00    +0.149 HD
ENDBRANCH   6   4
BRANCH  10  11
ATOM     11  O   UNL     1       8.474  -2.754   0.000  0.00  0.00    -0.491 OA
ATOM     12  C   UNL     1       8.356  -4.250   0.000  0.00  0.00    +0.277 C 
ENDBRANCH  10  11
BRANCH  13  14
ATOM     14  O   UNL     1      10.946  -4.454   0.000  0.00  0.00    -0.488 OA
ATOM     15  C   UNL     1      12.182  -5.304   0.000  0.00  0.00    +0.277 C 
ENDBRANCH  13  14
BRANCH  16  17
ATOM     17  O   UNL     1      13.654  -3.163   0.000  0.00  0.00    -0.503 OA
ATOM     18  H   UNL     1      15.008  -2.518   0.000  0.00  0.00    +0.292 HD
ENDBRANCH  16  17
BRANCH  24  25
ATOM     25  S   UNL     1       3.763  -0.272   0.000  0.00  0.00    -0.125 S 
ATOM     26  C   UNL     1       3.316  -1.703   0.000  0.00  0.00    +0.090 C 
ENDBRANCH  24  25
TORSDOF 5