REMARK  Name = NSC 8797
REMARK  10 active torsions:
REMARK  status: ('A' for Active; 'I' for Inactive)
REMARK    1  A    between atoms: C_4  and  O_5
REMARK    2  A    between atoms: C_13  and  O_14
REMARK    3  A    between atoms: C_15  and  C_16
REMARK    4  A    between atoms: C_17  and  C_21
REMARK    5  A    between atoms: C_21  and  C_22
REMARK    6  A    between atoms: C_21  and  C_27
REMARK    7  A    between atoms: C_22  and  C_23
REMARK    8  A    between atoms: C_23  and  C_24
REMARK    9  A    between atoms: C_24  and  O_25
REMARK   10  A    between atoms: C_33  and  C_34
REMARK                            x       y       z     vdW  Elec       q    Type
REMARK                         _______ _______ _______ _____ _____    ______ ____
ROOT
ATOM      1  C   UNL     1      -2.330   5.212   0.000  0.00  0.00    -0.002 C 
ATOM      2  C   UNL     1      -3.630   4.462   0.000  0.00  0.00    +0.035 C 
ATOM      3  C   UNL     1      -4.929   5.212   0.000  0.00  0.00    +0.115 C 
ATOM      6  C   UNL     1      -4.929   6.712   0.000  0.00  0.00    +0.032 C 
ATOM      7  C   UNL     1      -3.630   7.462   0.000  0.00  0.00    +0.010 C 
ATOM      8  C   UNL     1      -1.031   4.462   0.000  0.00  0.00    +0.004 C 
ATOM      9  C   UNL     1       0.268   5.212   0.000  0.00  0.00    +0.004 C 
ATOM     10  C   UNL     1       0.268   6.712   0.000  0.00  0.00    -0.004 C 
ATOM     11  C   UNL     1      -1.031   7.462   0.000  0.00  0.00    +0.001 C 
ATOM     12  C   UNL     1      -1.031   8.961   0.000  0.00  0.00    +0.036 C 
ATOM     13  C   UNL     1       0.268   9.711   0.000  0.00  0.00    +0.121 C 
ATOM     16  C   UNL     1       1.567   8.961   0.000  0.00  0.00    +0.000 C 
ATOM     17  C   UNL     1       1.723  10.453   0.000  0.00  0.00    +0.014 C 
ATOM     18  C   UNL     1       2.993   9.425   0.000  0.00  0.00    +0.001 C 
ATOM     19  C   UNL     1       3.875   8.211   0.000  0.00  0.00    +0.005 C 
ATOM     20  C   UNL     1       2.993   6.998   0.000  0.00  0.00    +0.005 C 
ATOM     29  C   UNL     1       1.567   7.462   0.000  0.00  0.00    +0.001 C 
ATOM     30  C   UNL     1      -2.330   6.712   0.000  0.00  0.00    -0.026 C 
ATOM     31  C   UNL     1      -2.330   8.211   0.000  0.00  0.00    +0.012 C 
ENDROOT
BRANCH   3   4
ATOM      4  O   UNL     1      -6.228   4.462   0.000  0.00  0.00    -0.392 OA
ATOM      5  H   UNL     1      -7.068   4.946   0.000  0.00  0.00    +0.210 HD
ENDBRANCH   3   4
BRANCH  13  14
ATOM     14  O   UNL     1       0.268  11.211   0.000  0.00  0.00    -0.391 OA
ATOM     15  H   UNL     1       1.108  11.696   0.000  0.00  0.00    +0.210 HD
ENDBRANCH  13  14
BRANCH  18  21
ATOM     21  C   UNL     1       2.630  10.881   0.000  0.00  0.00    -0.010 C 
ATOM     28  C   UNL     1       1.175  10.518   0.000  0.00  0.00    +0.008 C 
BRANCH  21  22
ATOM     22  C   UNL     1       3.709  11.922   0.000  0.00  0.00    +0.014 C 
BRANCH  22  23
ATOM     23  C   UNL     1       3.346  13.378   0.000  0.00  0.00    +0.121 C 
BRANCH  23  24
ATOM     24  C   UNL     1       4.426  14.420   0.000  0.00  0.00    +0.305 C 
ATOM     27  O   UNL     1       4.063  15.875   0.000  0.00  0.00    -0.251 OA
BRANCH  24  25
ATOM     25  O   UNL     1       5.867  14.007   0.000  0.00  0.00    -0.481 OA
ATOM     26  H   UNL     1       6.094  13.097   0.000  0.00  0.00    +0.295 HD
ENDBRANCH  24  25
ENDBRANCH  23  24
ENDBRANCH  22  23
ENDBRANCH  21  22
ENDBRANCH  18  21
TORSDOF 7