REMARK  Name = NSC 186301
REMARK  10 active torsions:
REMARK  status: ('A' for Active; 'I' for Inactive)
REMARK    1  A    between atoms: C_5  and  N_6
REMARK    2  A    between atoms: C_7  and  C_8
REMARK    3  A    between atoms: C_14  and  O_15
REMARK    4  A    between atoms: O_15  and  C_16
REMARK    5  A    between atoms: C_17  and  O_18
REMARK    6  A    between atoms: O_18  and  C_19
REMARK    7  A    between atoms: C_20  and  O_21
REMARK    8  A    between atoms: O_21  and  C_22
REMARK    9  A    between atoms: C_27  and  S_28
REMARK   10  A    between atoms: S_28  and  C_29
REMARK                            x       y       z     vdW  Elec       q    Type
REMARK                         _______ _______ _______ _____ _____    ______ ____
ROOT
ATOM      1  O   UNL     1      -4.158  -3.083   0.000  0.00  0.00    -0.287 OA
ATOM      2  C   UNL     1      -3.158  -1.965   0.000  0.00  0.00    +0.193 A 
ATOM      3  C   UNL     1      -1.717  -2.380   0.000  0.00  0.00    +0.058 A 
ATOM      4  C   UNL     1      -0.493  -1.513   0.000  0.00  0.00    -0.016 A 
ATOM      5  C   UNL     1       0.625  -2.512   0.000  0.00  0.00    +0.104 C 
ATOM     11  C   UNL     1       2.104  -2.261   0.000  0.00  0.00    +0.032 C 
ATOM     12  C   UNL     1       2.830  -0.949   0.000  0.00  0.00    +0.038 C 
ATOM     13  C   UNL     1       2.256   0.437   0.000  0.00  0.00    -0.032 A 
ATOM     14  C   UNL     1       3.337   1.478   0.000  0.00  0.00    +0.054 A 
ATOM     15  C   UNL     1       2.976   2.934   0.000  0.00  0.00    +0.165 A 
ATOM     18  C   UNL     1       1.534   3.349   0.000  0.00  0.00    +0.204 A 
ATOM     21  C   UNL     1       0.454   2.309   0.000  0.00  0.00    +0.173 A 
ATOM     24  C   UNL     1       0.815   0.853   0.000  0.00  0.00    +0.031 A 
ATOM     25  C   UNL     1      -0.409  -0.015   0.000  0.00  0.00    -0.009 A 
ATOM     26  C   UNL     1      -1.527   0.985   0.000  0.00  0.00    +0.010 A 
ATOM     27  C   UNL     1      -3.006   0.734   0.000  0.00  0.00    +0.019 A 
ATOM     28  C   UNL     1      -3.732  -0.579   0.000  0.00  0.00    +0.054 A 
ENDROOT
BRANCH   5   6
ATOM      6  N   UNL     1       0.210  -3.954   0.000  0.00  0.00    -0.309 N 
ATOM      7  H   UNL     1      -0.746  -4.191   0.000  0.00  0.00    +0.149 HD
ATOM      8  C   UNL     1       1.250  -5.034   0.000  0.00  0.00    +0.210 C 
ATOM      9  C   UNL     1       0.835  -6.476   0.000  0.00  0.00    +0.109 C 
ATOM     10  O   UNL     1       2.706  -4.673   0.000  0.00  0.00    -0.276 OA
ENDBRANCH   5   6
BRANCH  15  16
ATOM     16  O   UNL     1       4.056   3.974   0.000  0.00  0.00    -0.491 OA
ATOM     17  C   UNL     1       5.497   3.559   0.000  0.00  0.00    +0.277 C 
ENDBRANCH  15  16
BRANCH  18  19
ATOM     19  O   UNL     1       1.174   4.805   0.000  0.00  0.00    -0.488 OA
ATOM     20  C   UNL     1      -0.268   5.221   0.000  0.00  0.00    +0.277 C 
ENDBRANCH  18  19
BRANCH  21  22
ATOM     22  O   UNL     1      -0.987   2.724   0.000  0.00  0.00    -0.491 OA
ATOM     23  C   UNL     1      -2.068   1.684   0.000  0.00  0.00    +0.277 C 
ENDBRANCH  21  22
BRANCH  28  29
ATOM     29  S   UNL     1      -5.229  -0.495   0.000  0.00  0.00    -0.125 S 
ATOM     30  C   UNL     1      -5.905   0.845   0.000  0.00  0.00    +0.090 C 
ENDBRANCH  28  29
TORSDOF 5