REMARK  Name = NSC 32944#1
REMARK  11 active torsions:
REMARK  status: ('A' for Active; 'I' for Inactive)
REMARK    1  A    between atoms: C_4  and  C_9
REMARK    2  A    between atoms: C_5  and  C_6
REMARK    3  A    between atoms: C_6  and  C_7
REMARK    4  A    between atoms: C_9  and  C_10
REMARK    5  A    between atoms: C_16  and  O_17
REMARK    6  A    between atoms: C_18  and  O_19
REMARK    7  A    between atoms: O_19  and  C_20
REMARK    8  A    between atoms: C_25  and  O_26
REMARK    9  A    between atoms: O_26  and  C_27
REMARK   10  A    between atoms: C_28  and  O_29
REMARK   11  A    between atoms: O_29  and  C_30
REMARK                            x       y       z     vdW  Elec       q    Type
REMARK                         _______ _______ _______ _____ _____    ______ ____
ROOT
ATOM      1  C   UNL     1       7.245   6.000   0.000  0.00  0.00    +0.087 C 
ATOM      2  C   UNL     1       8.544   5.250   0.000  0.00  0.00    +0.027 C 
ATOM      3  C   UNL     1       9.843   6.000   0.000  0.00  0.00    -0.003 C 
ATOM      4  C   UNL     1       9.843   7.500   0.000  0.00  0.00    +0.006 C 
ATOM      7  C   UNL     1       8.544   8.250   0.000  0.00  0.00    +0.088 C 
ATOM     24  C   UNL     1       5.946   5.250   0.000  0.00  0.00    -0.023 A 
ATOM     25  C   UNL     1       5.946   3.750   0.000  0.00  0.00    +0.054 A 
ATOM     26  C   UNL     1       4.647   3.000   0.000  0.00  0.00    +0.162 A 
ATOM     29  C   UNL     1       3.348   3.750   0.000  0.00  0.00    +0.162 A 
ATOM     32  C   UNL     1       3.348   5.250   0.000  0.00  0.00    +0.053 A 
ATOM     33  C   UNL     1       4.647   6.000   0.000  0.00  0.00    -0.038 A 
ATOM     34  C   UNL     1       4.647   7.500   0.000  0.00  0.00    +0.051 C 
ATOM     35  C   UNL     1       5.946   8.250   0.000  0.00  0.00    +0.089 C 
ATOM     36  N   UNL     1       7.245   7.500   0.000  0.00  0.00    -0.295 NA
ENDROOT
BRANCH   4   5
ATOM      5  C   UNL     1      11.142   8.250   0.000  0.00  0.00    +0.002 C 
ATOM      6  C   UNL     1      12.441   7.500   0.000  0.00  0.00    +0.004 C 
ENDBRANCH   4   5
BRANCH  26  27
ATOM     27  O   UNL     1       4.647   1.500   0.000  0.00  0.00    -0.491 OA
ATOM     28  C   UNL     1       3.348   0.750   0.000  0.00  0.00    +0.277 C 
ENDBRANCH  26  27
BRANCH  29  30
ATOM     30  O   UNL     1       2.049   3.000   0.000  0.00  0.00    -0.491 OA
ATOM     31  C   UNL     1       0.750   3.750   0.000  0.00  0.00    +0.277 C 
ENDBRANCH  29  30
BRANCH   3   8
ATOM      8  C   UNL     1      11.142   5.250   0.000  0.00  0.00    +0.027 C 
BRANCH   8   9
ATOM      9  C   UNL     1      11.142   3.750   0.000  0.00  0.00    +0.085 C 
ATOM     10  N   UNL     1       9.843   3.000   0.000  0.00  0.00    -0.309 NA
ATOM     11  H   UNL     1       8.960   3.510   0.000  0.00  0.00    +0.123 HD
ATOM     12  C   UNL     1       9.843   1.500   0.000  0.00  0.00    +0.086 C 
ATOM     13  C   UNL     1      11.142   0.750   0.000  0.00  0.00    +0.050 C 
ATOM     14  C   UNL     1      12.441   1.500   0.000  0.00  0.00    -0.038 A 
ATOM     15  C   UNL     1      13.740   0.750   0.000  0.00  0.00    +0.053 A 
ATOM     16  C   UNL     1      15.039   1.500   0.000  0.00  0.00    +0.159 A 
ATOM     19  C   UNL     1      15.039   3.000   0.000  0.00  0.00    +0.162 A 
ATOM     22  C   UNL     1      13.740   3.750   0.000  0.00  0.00    +0.054 A 
ATOM     23  C   UNL     1      12.441   3.000   0.000  0.00  0.00    -0.024 A 
BRANCH  16  17
ATOM     17  O   UNL     1      16.339   0.750   0.000  0.00  0.00    -0.503 OA
ATOM     18  H   UNL     1      16.339  -0.187   0.000  0.00  0.00    +0.292 HD
ENDBRANCH  16  17
BRANCH  19  20
ATOM     20  O   UNL     1      16.339   3.750   0.000  0.00  0.00    -0.491 OA
ATOM     21  C   UNL     1      17.637   3.000   0.000  0.00  0.00    +0.277 C 
ENDBRANCH  19  20
ENDBRANCH   8   9
ENDBRANCH   3   8
TORSDOF 7