REMARK  Name = NSC 407286
REMARK  4 active torsions:
REMARK  status: ('A' for Active; 'I' for Inactive)
REMARK    1  A    between atoms: C_4  and  O_5
REMARK    2  A    between atoms: C_6  and  O_7
REMARK    3  A    between atoms: C_14  and  O_15
REMARK    4  A    between atoms: C_16  and  O_17
REMARK                            x       y       z     vdW  Elec       q    Type
REMARK                         _______ _______ _______ _____ _____    ______ ____
ROOT
ATOM      1  C   UNL     1       5.250   7.245   0.000  0.00  0.00    +0.345 A 
ATOM      2  C   UNL     1       4.500   5.946   0.000  0.00  0.00    +0.074 A 
ATOM      3  C   UNL     1       3.000   5.946   0.000  0.00  0.00    +0.065 A 
ATOM      4  C   UNL     1       2.250   4.647   0.000  0.00  0.00    +0.163 A 
ATOM      7  C   UNL     1       3.000   3.348   0.000  0.00  0.00    +0.202 A 
ATOM     10  C   UNL     1       4.500   3.348   0.000  0.00  0.00    +0.185 A 
ATOM     11  O   UNL     1       5.250   2.049   0.000  0.00  0.00    -0.418 OA
ATOM     12  C   UNL     1       6.750   2.049   0.000  0.00  0.00    +0.345 A 
ATOM     13  O   UNL     1       7.500   0.750   0.000  0.00  0.00    -0.244 OA
ATOM     14  C   UNL     1       7.500   3.348   0.000  0.00  0.00    +0.074 A 
ATOM     15  C   UNL     1       9.000   3.348   0.000  0.00  0.00    +0.065 A 
ATOM     16  C   UNL     1       9.750   4.647   0.000  0.00  0.00    +0.163 A 
ATOM     19  C   UNL     1       9.000   5.946   0.000  0.00  0.00    +0.202 A 
ATOM     22  C   UNL     1       7.500   5.946   0.000  0.00  0.00    +0.185 A 
ATOM     23  C   UNL     1       6.750   4.647   0.000  0.00  0.00    +0.047 A 
ATOM     24  C   UNL     1       5.250   4.647   0.000  0.00  0.00    +0.047 A 
ATOM     25  O   UNL     1       6.750   7.245   0.000  0.00  0.00    -0.418 OA
ATOM     26  O   UNL     1       4.500   8.544   0.000  0.00  0.00    -0.244 OA
ENDROOT
BRANCH   4   5
ATOM      5  O   UNL     1       0.750   4.647   0.000  0.00  0.00    -0.503 OA
ATOM      6  H   UNL     1       0.281   5.459   0.000  0.00  0.00    +0.292 HD
ENDBRANCH   4   5
BRANCH   7   8
ATOM      8  O   UNL     1       2.250   2.049   0.000  0.00  0.00    -0.501 OA
ATOM      9  H   UNL     1       1.313   2.049   0.000  0.00  0.00    +0.292 HD
ENDBRANCH   7   8
BRANCH  16  17
ATOM     17  O   UNL     1      11.250   4.647   0.000  0.00  0.00    -0.503 OA
ATOM     18  H   UNL     1      11.719   3.836   0.000  0.00  0.00    +0.292 HD
ENDBRANCH  16  17
BRANCH  19  20
ATOM     20  O   UNL     1       9.750   7.245   0.000  0.00  0.00    -0.501 OA
ATOM     21  H   UNL     1      10.687   7.245   0.000  0.00  0.00    +0.292 HD
ENDBRANCH  19  20
TORSDOF 4