REMARK  Name = NSC 12444
REMARK  2 active torsions:
REMARK  status: ('A' for Active; 'I' for Inactive)
REMARK    1  A    between atoms: C_4  and  C_5
REMARK    2  A    between atoms: C_5  and  O_6
REMARK                            x       y       z     vdW  Elec       q    Type
REMARK                         _______ _______ _______ _____ _____    ______ ____
ROOT
ATOM      1  O   UNL     1      -0.289   7.655   0.000  0.00  0.00    -0.461 OA
ATOM      2  C   UNL     1      -0.289   6.155   0.000  0.00  0.00    +0.312 C 
ATOM      3  C   UNL     1      -1.715   5.692   0.000  0.00  0.00    +0.118 C 
ATOM      4  C   UNL     1      -2.597   4.478   0.000  0.00  0.00    +0.115 C 
ATOM      9  C   UNL     1      -4.024   4.942   0.000  0.00  0.00    +0.007 C 
ATOM     10  C   UNL     1      -1.715   6.619   0.000  0.00  0.00    +0.049 C 
ATOM     11  C   UNL     1      -4.024   6.442   0.000  0.00  0.00    +0.012 C 
ATOM     12  C   UNL     1      -2.597   6.905   0.000  0.00  0.00    +0.045 C 
ATOM     13  O   UNL     1       0.925   5.274   0.000  0.00  0.00    -0.250 OA
ATOM     14  C   UNL     1      -1.715   8.119   0.000  0.00  0.00    +0.181 C 
ENDROOT
BRANCH   4   5
ATOM      5  C   UNL     1      -2.133   3.052   0.000  0.00  0.00    +0.309 C 
ATOM      8  O   UNL     1      -3.137   1.937   0.000  0.00  0.00    -0.251 OA
BRANCH   5   6
ATOM      6  O   UNL     1      -0.666   2.740   0.000  0.00  0.00    -0.480 OA
ATOM      7  H   UNL     1      -0.377   1.849   0.000  0.00  0.00    +0.295 HD
ENDBRANCH   5   6
ENDBRANCH   4   5
TORSDOF 2