REMARK  Name = NSC 785183
REMARK  16 active torsions:
REMARK  status: ('A' for Active; 'I' for Inactive)
REMARK    1  A    between atoms: C_2  and  C_3
REMARK    2  A    between atoms: C_3  and  C_4
REMARK    3  A    between atoms: N_5  and  C_6
REMARK    4  A    between atoms: C_11  and  O_12
REMARK    5  A    between atoms: O_12  and  C_13
REMARK    6  A    between atoms: C_14  and  O_15
REMARK    7  A    between atoms: C_20  and  O_21
REMARK    8  A    between atoms: O_21  and  C_22
REMARK    9  A    between atoms: C_23  and  O_24
REMARK   10  A    between atoms: O_24  and  C_25
REMARK   11  A    between atoms: C_28  and  C_29
REMARK   12  A    between atoms: C_29  and  C_30
REMARK   13  A    between atoms: N_31  and  C_32
REMARK   14  A    between atoms: C_37  and  O_38
REMARK   15  A    between atoms: O_38  and  C_39
REMARK   16  A    between atoms: C_40  and  O_41
REMARK                            x       y       z     vdW  Elec       q    Type
REMARK                         _______ _______ _______ _____ _____    ______ ____
ROOT
ATOM     23  C   UNL     1       6.770   7.774   0.000  0.00  0.00    +0.170 A 
ATOM     24  C   UNL     1       6.770   6.274   0.000  0.00  0.00    +0.162 A 
ATOM     27  C   UNL     1       5.471   5.524   0.000  0.00  0.00    +0.050 A 
ATOM     28  C   UNL     1       4.172   6.274   0.000  0.00  0.00    +0.007 A 
ATOM     29  C   UNL     1       4.172   7.774   0.000  0.00  0.00    -0.042 A 
ATOM     46  C   UNL     1       5.471   8.524   0.000  0.00  0.00    +0.053 A 
ENDROOT
BRANCH  24  25
ATOM     25  O   UNL     1       8.069   5.524   0.000  0.00  0.00    -0.491 OA
ATOM     26  C   UNL     1       9.368   6.274   0.000  0.00  0.00    +0.277 C 
ENDBRANCH  24  25
BRANCH  23  22
ATOM     22  O   UNL     1       8.069   8.524   0.000  0.00  0.00    -0.452 OA
BRANCH  22  21
ATOM      1  C   UNL     1       6.770  12.275   0.000  0.00  0.00    +0.007 A 
ATOM      2  C   UNL     1       8.069  13.025   0.000  0.00  0.00    -0.045 A 
ATOM     19  C   UNL     1       9.368  12.275   0.000  0.00  0.00    +0.007 A 
ATOM     20  C   UNL     1       9.368  10.775   0.000  0.00  0.00    +0.046 A 
ATOM     21  C   UNL     1       8.069  10.025   0.000  0.00  0.00    +0.129 A 
ATOM     47  C   UNL     1       6.770  10.775   0.000  0.00  0.00    +0.046 A 
BRANCH   2   3
ATOM      3  C   UNL     1       8.069  14.525   0.000  0.00  0.00    +0.058 C 
BRANCH   3   4
ATOM      4  C   UNL     1       9.368  15.275   0.000  0.00  0.00    +0.091 C 
ATOM      5  N   UNL     1       9.368  16.775   0.000  0.00  0.00    -0.298 NA
ATOM      6  C   UNL     1       8.069  17.525   0.000  0.00  0.00    +0.105 C 
ATOM      7  C   UNL     1      10.667  17.525   0.000  0.00  0.00    +0.089 C 
ATOM      8  C   UNL     1      11.966  16.775   0.000  0.00  0.00    +0.051 C 
ATOM      9  C   UNL     1      11.966  15.275   0.000  0.00  0.00    -0.038 A 
ATOM     10  C   UNL     1      13.265  14.525   0.000  0.00  0.00    +0.053 A 
ATOM     11  C   UNL     1      13.265  13.025   0.000  0.00  0.00    +0.162 A 
ATOM     14  C   UNL     1      11.966  12.275   0.000  0.00  0.00    +0.159 A 
ATOM     17  C   UNL     1      10.667  13.025   0.000  0.00  0.00    +0.054 A 
ATOM     18  C   UNL     1      10.667  14.525   0.000  0.00  0.00    -0.023 A 
BRANCH  11  12
ATOM     12  O   UNL     1      14.564  12.275   0.000  0.00  0.00    -0.491 OA
ATOM     13  C   UNL     1      15.863  13.025   0.000  0.00  0.00    +0.277 C 
ENDBRANCH  11  12
BRANCH  14  15
ATOM     15  O   UNL     1      11.966  10.775   0.000  0.00  0.00    -0.503 OA
ATOM     16  H   UNL     1      11.154  10.306   0.000  0.00  0.00    +0.292 HD
ENDBRANCH  14  15
ENDBRANCH   3   4
ENDBRANCH   2   3
ENDBRANCH  22  21
ENDBRANCH  23  22
BRANCH  29  30
ATOM     30  C   UNL     1       2.873   8.524   0.000  0.00  0.00    +0.059 C 
BRANCH  30  31
ATOM     31  C   UNL     1       1.574   7.774   0.000  0.00  0.00    +0.091 C 
ATOM     32  N   UNL     1       1.574   6.274   0.000  0.00  0.00    -0.298 NA
ATOM     33  C   UNL     1       2.873   5.524   0.000  0.00  0.00    +0.105 C 
ATOM     34  C   UNL     1       0.275   5.524   0.000  0.00  0.00    +0.089 C 
ATOM     35  C   UNL     1      -1.025   6.274   0.000  0.00  0.00    +0.051 C 
ATOM     36  C   UNL     1      -1.025   7.774   0.000  0.00  0.00    -0.038 A 
ATOM     37  C   UNL     1      -2.324   8.524   0.000  0.00  0.00    +0.053 A 
ATOM     38  C   UNL     1      -2.324  10.025   0.000  0.00  0.00    +0.162 A 
ATOM     41  C   UNL     1      -1.025  10.775   0.000  0.00  0.00    +0.159 A 
ATOM     44  C   UNL     1       0.275  10.025   0.000  0.00  0.00    +0.054 A 
ATOM     45  C   UNL     1       0.275   8.524   0.000  0.00  0.00    -0.023 A 
BRANCH  38  39
ATOM     39  O   UNL     1      -3.623  10.775   0.000  0.00  0.00    -0.491 OA
ATOM     40  C   UNL     1      -4.922  10.025   0.000  0.00  0.00    +0.277 C 
ENDBRANCH  38  39
BRANCH  41  42
ATOM     42  O   UNL     1      -1.025  12.275   0.000  0.00  0.00    -0.503 OA
ATOM     43  H   UNL     1      -0.213  12.743   0.000  0.00  0.00    +0.292 HD
ENDBRANCH  41  42
ENDBRANCH  30  31
ENDBRANCH  29  30
TORSDOF 11