REMARK  Name = NSC 247562#1
REMARK  8 active torsions:
REMARK  status: ('A' for Active; 'I' for Inactive)
REMARK    1  A    between atoms: C_10  and  C_11
REMARK    2  A    between atoms: C_11  and  C_12
REMARK    3  A    between atoms: C_12  and  C_13
REMARK    4  A    between atoms: C_13  and  C_14
REMARK    5  A    between atoms: C_17  and  C_18
REMARK    6  A    between atoms: C_20  and  O_21
REMARK    7  A    between atoms: O_21  and  C_22
REMARK    8  A    between atoms: C_24  and  C_25
REMARK                            x       y       z     vdW  Elec       q    Type
REMARK                         _______ _______ _______ _____ _____    ______ ____
ROOT
ATOM      1  H   UNL     1       0.720   1.336   0.000  0.00  0.00    +0.166 HD
ATOM      2  N   UNL     1       0.280  -0.098   0.000  0.00  0.00    -0.358 N 
ATOM      3  C   UNL     1       1.183  -1.296   0.000  0.00  0.00    +0.020 A 
ATOM      4  C   UNL     1       2.677  -1.428   0.000  0.00  0.00    +0.053 C 
ATOM      5  C   UNL     1       3.310  -2.787   0.000  0.00  0.00    +0.006 C 
ATOM      6  C   UNL     1       4.744  -3.227   0.000  0.00  0.00    +0.000 C 
ATOM      7  C   UNL     1       4.770  -4.726   0.000  0.00  0.00    +0.000 C 
ATOM      8  C   UNL     1       3.351  -5.214   0.000  0.00  0.00    +0.001 C 
ATOM      9  C   UNL     1       2.449  -4.016   0.000  0.00  0.00    +0.008 C 
ATOM     10  C   UNL     1       0.955  -3.884   0.000  0.00  0.00    +0.021 C 
ATOM     15  C   UNL     1       0.322  -2.525   0.000  0.00  0.00    -0.023 A 
ATOM     16  C   UNL     1      -1.113  -2.085   0.000  0.00  0.00    +0.031 A 
ATOM     17  C   UNL     1      -1.138  -0.586   0.000  0.00  0.00    +0.042 A 
ENDROOT
BRANCH  17  18
ATOM     18  C   UNL     1      -2.367   0.275   0.000  0.00  0.00    +0.057 C 
ATOM     19  C   UNL     1      -2.235   1.770   0.000  0.00  0.00    +0.108 C 
ATOM     20  C   UNL     1      -3.367   2.754   0.000  0.00  0.00    +0.147 C 
ATOM     23  C   UNL     1      -2.780   4.135   0.000  0.00  0.00    +0.077 C 
ATOM     24  C   UNL     1      -1.286   4.003   0.000  0.00  0.00    +0.091 C 
ATOM     31  N   UNL     1      -0.949   2.542   0.000  0.00  0.00    -0.242 NA
BRANCH  24  25
ATOM     25  C   UNL     1      -0.301   5.135   0.000  0.00  0.00    +0.065 A 
ATOM     26  C   UNL     1       1.193   5.003   0.000  0.00  0.00    +0.029 A 
ATOM     27  C   UNL     1       1.780   6.384   0.000  0.00  0.00    +0.019 A 
ATOM     28  C   UNL     1       0.648   7.369   0.000  0.00  0.00    +0.083 A 
ATOM     29  N   UNL     1      -0.638   6.596   0.000  0.00  0.00    -0.359 N 
ATOM     30  H   UNL     1      -2.019   7.183   0.000  0.00  0.00    +0.165 HD
ENDBRANCH  24  25
BRANCH  20  21
ATOM     21  O   UNL     1      -4.829   2.417   0.000  0.00  0.00    -0.493 OA
ATOM     22  C   UNL     1      -5.851   3.515   0.000  0.00  0.00    +0.277 C 
ENDBRANCH  20  21
ENDBRANCH  17  18
BRANCH  10  11
ATOM     11  C   UNL     1       0.094  -5.113   0.000  0.00  0.00    +0.008 C 
BRANCH  11  12
ATOM     12  C   UNL     1       0.727  -6.472   0.000  0.00  0.00    +0.000 C 
BRANCH  12  13
ATOM     13  C   UNL     1       2.221  -6.604   0.000  0.00  0.00    -0.003 C 
ATOM     14  C   UNL     1       2.855  -7.964   0.000  0.00  0.00    +0.004 C 
ENDBRANCH  12  13
ENDBRANCH  11  12
ENDBRANCH  10  11
TORSDOF 6