REMARK  Name = NSC 23615
REMARK  4 active torsions:
REMARK  status: ('A' for Active; 'I' for Inactive)
REMARK    1  A    between atoms: C4*_2  and  C5*_3
REMARK    2  A    between atoms: C5*_3  and  O5*_4
REMARK    3  A    between atoms: C3*_5  and  O3*_6
REMARK    4  A    between atoms: C1*_8  and  N1_9
REMARK                            x       y       z     vdW  Elec       q    Type
REMARK                         _______ _______ _______ _____ _____    ______ ____
ROOT
ATOM      1  O4*   U A   1      -4.562   4.760   0.000  0.00  0.00    -0.348 OA
ATOM      2  C4*   U A   1      -4.098   3.334   0.000  0.00  0.00    +0.175 C 
ATOM      6  C3*   U A   1      -2.598   3.334   0.000  0.00  0.00    +0.150 C 
ATOM      9  C2*   U A   1      -2.135   4.760   0.000  0.00  0.00    +0.088 C 
ATOM     10  C1*   U A   1      -3.348   5.642   0.000  0.00  0.00    +0.226 C 
ENDROOT
BRANCH  10  11
ATOM     11  N1    U A   1      -3.348   7.142   0.000  0.00  0.00    -0.274 N 
ATOM     12  C2    U A   1      -2.049   7.892   0.000  0.00  0.00    +0.331 A 
ATOM     13  N3    U A   1      -2.049   9.392   0.000  0.00  0.00    -0.275 N 
ATOM     14  H3    U A   1      -1.196   9.884   0.000  0.00  0.00    +0.173 HD
ATOM     15  C4    U A   1      -3.348  10.142   0.000  0.00  0.00    +0.254 A 
ATOM     16  C5    U A   1      -4.647   9.392   0.000  0.00  0.00    +0.088 A 
ATOM     17  O4    U A   1      -3.348  11.642   0.000  0.00  0.00    -0.268 OA
ATOM     18  O2    U A   1      -0.750   7.142   0.000  0.00  0.00    -0.246 OA
ATOM     19  C6    U A   1      -4.647   7.892   0.000  0.00  0.00    +0.098 A 
ENDBRANCH  10  11
BRANCH   6   7
ATOM      7  O3*   U A   1      -1.716   2.120   0.000  0.00  0.00    -0.389 OA
ATOM      8  H3*   U A   1      -2.111   1.234   0.000  0.00  0.00    +0.210 HD
ENDBRANCH   6   7
BRANCH   2   3
ATOM      3  C5*   U A   1      -4.980   2.120   0.000  0.00  0.00    +0.190 C 
BRANCH   3   4
ATOM      4  O5*   U A   1      -4.370   0.750   0.000  0.00  0.00    -0.392 OA
ATOM      5  H5*   U A   1      -4.940  -0.035   0.000  0.00  0.00    +0.210 HD
ENDBRANCH   3   4
ENDBRANCH   2   3
TORSDOF 4