REMARK  Name = NSC 19509#1
REMARK  4 active torsions:
REMARK  status: ('A' for Active; 'I' for Inactive)
REMARK    1  A    between atoms: C_14  and  C_15
REMARK    2  A    between atoms: C_15  and  O_17
REMARK    3  A    between atoms: O_17  and  C_18
REMARK    4  A    between atoms: C_19  and  O_20
REMARK                            x       y       z     vdW  Elec       q    Type
REMARK                         _______ _______ _______ _____ _____    ______ ____
ROOT
ATOM      1  C   UNL     1      -6.221   7.774   0.000  0.00  0.00    +0.053 C 
ATOM      2  C   UNL     1      -7.520   7.024   0.000  0.00  0.00    -0.016 A 
ATOM      3  C   UNL     1      -7.520   5.524   0.000  0.00  0.00    +0.038 A 
ATOM      4  N   UNL     1      -8.946   5.061   0.000  0.00  0.00    -0.356 N 
ATOM      5  H   UNL     1      -9.410   3.634   0.000  0.00  0.00    +0.166 HD
ATOM      6  C   UNL     1      -9.828   6.274   0.000  0.00  0.00    +0.047 A 
ATOM      7  C   UNL     1     -11.320   6.431   0.000  0.00  0.00    +0.026 A 
ATOM      8  C   UNL     1     -11.930   7.802   0.000  0.00  0.00    +0.002 A 
ATOM      9  C   UNL     1     -11.048   9.015   0.000  0.00  0.00    +0.001 A 
ATOM     10  C   UNL     1      -9.556   8.858   0.000  0.00  0.00    +0.010 A 
ATOM     11  C   UNL     1      -6.221   4.774   0.000  0.00  0.00    +0.104 C 
ATOM     12  C   UNL     1      -6.221   3.275   0.000  0.00  0.00    +0.030 C 
ATOM     13  C   UNL     1      -4.922   2.525   0.000  0.00  0.00    +0.011 C 
ATOM     14  C   UNL     1      -4.922   1.025   0.000  0.00  0.00    +0.130 C 
ATOM     19  C   UNL     1      -3.623   0.275   0.000  0.00  0.00    +0.129 C 
ATOM     22  C   UNL     1      -2.324   1.025   0.000  0.00  0.00    +0.032 C 
ATOM     23  C   UNL     1      -2.324   2.525   0.000  0.00  0.00    +0.007 C 
ATOM     24  C   UNL     1      -3.623   3.275   0.000  0.00  0.00    +0.007 C 
ATOM     25  C   UNL     1      -3.623   4.774   0.000  0.00  0.00    +0.089 C 
ATOM     26  N   UNL     1      -4.922   5.524   0.000  0.00  0.00    -0.293 NA
ATOM     27  C   UNL     1      -8.946   7.488   0.000  0.00  0.00    +0.003 A 
ATOM     28  C   UNL     1      -4.922   7.024   0.000  0.00  0.00    +0.090 C 
ENDROOT
BRANCH  14  15
ATOM     15  C   UNL     1      -6.221   0.275   0.000  0.00  0.00    +0.313 C 
ATOM     16  O   UNL     1      -6.221  -1.226   0.000  0.00  0.00    -0.250 OA
BRANCH  15  17
ATOM     17  O   UNL     1      -7.520   1.025   0.000  0.00  0.00    -0.468 OA
ATOM     18  C   UNL     1      -7.520   2.525   0.000  0.00  0.00    +0.280 C 
ENDBRANCH  15  17
ENDBRANCH  14  15
BRANCH  19  20
ATOM     20  O   UNL     1      -3.623  -1.226   0.000  0.00  0.00    -0.391 OA
ATOM     21  H   UNL     1      -4.463  -1.711   0.000  0.00  0.00    +0.210 HD
ENDBRANCH  19  20
TORSDOF 3