REMARK  Name = NSC 785157
REMARK  0 active torsions:
REMARK  status: ('A' for Active; 'I' for Inactive)
REMARK                            x       y       z     vdW  Elec       q    Type
REMARK                         _______ _______ _______ _____ _____    ______ ____
ROOT
ATOM      1  C   UNL     1       7.317   1.141   0.000  0.00  0.00    +0.036 A 
ATOM      2  C   UNL     1       7.317   2.641   0.000  0.00  0.00    +0.174 A 
ATOM      3  O   UNL     1       6.203   3.645   0.000  0.00  0.00    -0.452 OA
ATOM      4  C   UNL     1       6.813   5.015   0.000  0.00  0.00    +0.466 C 
ATOM      5  O   UNL     1       8.305   4.859   0.000  0.00  0.00    -0.453 OA
ATOM      6  C   UNL     1       8.616   3.391   0.000  0.00  0.00    +0.167 A 
ATOM      7  C   UNL     1       9.915   2.641   0.000  0.00  0.00    +0.053 A 
ATOM      8  C   UNL     1       9.915   1.141   0.000  0.00  0.00    -0.037 A 
ATOM      9  C   UNL     1      11.214   0.391   0.000  0.00  0.00    +0.050 C 
ATOM     10  C   UNL     1      11.214  -1.109   0.000  0.00  0.00    +0.086 C 
ATOM     11  N   UNL     1       9.915  -1.859   0.000  0.00  0.00    -0.309 NA
ATOM     12  H   UNL     1       9.916  -2.879   0.000  0.00  0.00    +0.123 HD
ATOM     13  C   UNL     1       8.616  -1.109   0.000  0.00  0.00    +0.089 C 
ATOM     14  C   UNL     1       7.317  -1.859   0.000  0.00  0.00    +0.059 C 
ATOM     15  C   UNL     1       6.018  -1.109   0.000  0.00  0.00    -0.034 A 
ATOM     16  C   UNL     1       4.719  -1.859   0.000  0.00  0.00    +0.008 A 
ATOM     17  C   UNL     1       3.420  -1.109   0.000  0.00  0.00    +0.050 A 
ATOM     18  C   UNL     1       3.420   0.391   0.000  0.00  0.00    +0.167 A 
ATOM     19  O   UNL     1       2.305   1.395   0.000  0.00  0.00    -0.453 OA
ATOM     20  C   UNL     1       2.916   2.765   0.000  0.00  0.00    +0.466 C 
ATOM     21  O   UNL     1       4.407   2.609   0.000  0.00  0.00    -0.452 OA
ATOM     22  C   UNL     1       4.719   1.141   0.000  0.00  0.00    +0.174 A 
ATOM     23  C   UNL     1       8.616   0.391   0.000  0.00  0.00    -0.015 A 
ATOM     24  C   UNL     1       6.018   0.391   0.000  0.00  0.00    +0.035 A 
ENDROOT
TORSDOF 0