REMARK  Name = NSC 785147#2
REMARK  4 active torsions:
REMARK  status: ('A' for Active; 'I' for Inactive)
REMARK    1  A    between atoms: C_2  and  N_3
REMARK    2  A    between atoms: C_6  and  O_7
REMARK    3  A    between atoms: C_8  and  N_9
REMARK    4  A    between atoms: C_13  and  N_14
REMARK                            x       y       z     vdW  Elec       q    Type
REMARK                         _______ _______ _______ _____ _____    ______ ____
ROOT
ATOM      1  C   UNL     1      -4.924  -1.013   0.000  0.00  0.00    +0.172 A 
ATOM      2  C   UNL     1      -6.221  -0.259   0.000  0.00  0.00    +0.327 A 
ATOM      6  C   UNL     1      -7.522  -1.006   0.000  0.00  0.00    +0.274 A 
ATOM      9  C   UNL     1      -7.526  -2.506   0.000  0.00  0.00    +0.327 A 
ATOM     13  C   UNL     1      -6.229  -3.259   0.000  0.00  0.00    +0.172 A 
ATOM     14  C   UNL     1      -4.928  -2.513   0.000  0.00  0.00    +0.286 A 
ENDROOT
BRANCH   2   3
ATOM      3  N   UNL     1      -6.218   1.241   0.000  0.00  0.00    +0.084 N 
ATOM      4  O   UNL     1      -7.515   1.994   0.000  0.00  0.00    +0.042 OA
ATOM      5  O   UNL     1      -4.917   1.987   0.000  0.00  0.00    -0.576 OA
ENDBRANCH   2   3
BRANCH   9  10
ATOM     10  N   UNL     1      -8.827  -3.253   0.000  0.00  0.00    +0.084 N 
ATOM     11  O   UNL     1     -10.124  -2.500   0.000  0.00  0.00    +0.042 OA
ATOM     12  O   UNL     1      -8.830  -4.753   0.000  0.00  0.00    -0.576 OA
ENDBRANCH   9  10
BRANCH  14  15
ATOM     15  N   UNL     1      -3.631  -3.266   0.000  0.00  0.00    +0.080 N 
ATOM     16  O   UNL     1      -3.634  -4.766   0.000  0.00  0.00    +0.041 OA
ATOM     17  O   UNL     1      -2.330  -2.519   0.000  0.00  0.00    -0.576 OA
ENDBRANCH  14  15
BRANCH   6   7
ATOM      7  O   UNL     1      -8.819  -0.253   0.000  0.00  0.00    -0.497 OA
ATOM      8  H   UNL     1      -8.817   0.684   0.000  0.00  0.00    +0.293 HD
ENDBRANCH   6   7
TORSDOF 4