REMARK  Name = NSC 34758
REMARK  5 active torsions:
REMARK  status: ('A' for Active; 'I' for Inactive)
REMARK    1  A    between atoms: N_1  and  C_2
REMARK    2  A    between atoms: C_11  and  O_12
REMARK    3  A    between atoms: O_12  and  C_13
REMARK    4  A    between atoms: C_14  and  O_15
REMARK    5  A    between atoms: O_15  and  C_16
REMARK                            x       y       z     vdW  Elec       q    Type
REMARK                         _______ _______ _______ _____ _____    ______ ____
ROOT
ATOM      1  N   UNL     1      -7.245  -2.374   0.000  0.00  0.00    -0.340 N 
ATOM      2  C   UNL     1      -7.245  -0.874   0.000  0.00  0.00    +0.149 C 
ATOM      3  C   UNL     1      -8.544  -3.124   0.000  0.00  0.00    +0.053 A 
ATOM      4  C   UNL     1      -9.843  -2.374   0.000  0.00  0.00    +0.026 A 
ATOM      5  C   UNL     1     -11.142  -3.124   0.000  0.00  0.00    +0.002 A 
ATOM      6  C   UNL     1     -11.142  -4.624   0.000  0.00  0.00    +0.001 A 
ATOM      7  C   UNL     1      -9.843  -5.374   0.000  0.00  0.00    +0.014 A 
ATOM      8  C   UNL     1      -8.544  -4.624   0.000  0.00  0.00    +0.046 A 
ATOM      9  C   UNL     1      -7.245  -5.374   0.000  0.00  0.00    +0.201 A 
ATOM     10  C   UNL     1      -5.946  -4.624   0.000  0.00  0.00    +0.095 A 
ATOM     11  C   UNL     1      -4.647  -5.374   0.000  0.00  0.00    +0.178 A 
ATOM     14  C   UNL     1      -3.348  -4.624   0.000  0.00  0.00    +0.208 A 
ATOM     17  C   UNL     1      -3.348  -3.124   0.000  0.00  0.00    +0.213 A 
ATOM     18  C   UNL     1      -4.647  -2.374   0.000  0.00  0.00    +0.194 A 
ATOM     19  O   UNL     1      -4.335  -0.907   0.000  0.00  0.00    -0.450 OA
ATOM     20  C   UNL     1      -2.844  -0.750   0.000  0.00  0.00    +0.467 C 
ATOM     21  O   UNL     1      -2.233  -2.120   0.000  0.00  0.00    -0.449 OA
ATOM     22  O   UNL     1      -7.245  -6.874   0.000  0.00  0.00    -0.286 OA
ATOM     23  C   UNL     1      -5.946  -3.124   0.000  0.00  0.00    +0.103 A 
ENDROOT
BRANCH  11  12
ATOM     12  O   UNL     1      -4.647  -6.874   0.000  0.00  0.00    -0.491 OA
ATOM     13  C   UNL     1      -5.946  -7.624   0.000  0.00  0.00    +0.277 C 
ENDBRANCH  11  12
BRANCH  14  15
ATOM     15  O   UNL     1      -2.049  -5.374   0.000  0.00  0.00    -0.488 OA
ATOM     16  C   UNL     1      -0.750  -4.624   0.000  0.00  0.00    +0.277 C 
ENDBRANCH  14  15
TORSDOF 2