REMARK  Name = NSC 72942#1
REMARK  4 active torsions:
REMARK  status: ('A' for Active; 'I' for Inactive)
REMARK    1  A    between atoms: C_2  and  C_3
REMARK    2  A    between atoms: N_4  and  C_5
REMARK    3  A    between atoms: C_5  and  C_6
REMARK    4  A    between atoms: C_6  and  C_7
REMARK                            x       y       z     vdW  Elec       q    Type
REMARK                         _______ _______ _______ _____ _____    ______ ____
ROOT
ATOM      3  C   UNL     1       1.466   6.069   0.000  0.00  0.00    +0.262 C 
ATOM      4  N   UNL     1       0.856   7.440   0.000  0.00  0.00    -0.311 N 
ATOM      5  H   UNL     1      -0.124   7.543   0.000  0.00  0.00    +0.149 HD
ATOM     14  O   UNL     1       2.958   5.913   0.000  0.00  0.00    -0.271 OA
ENDROOT
BRANCH   3   2
ATOM      1  N   UNL     1       1.048   3.429   0.000  0.00  0.00    -0.075 NA
ATOM      2  C   UNL     1       0.584   4.856   0.000  0.00  0.00    +0.310 C 
ATOM     15  C   UNL     1      -0.916   4.856   0.000  0.00  0.00    +0.075 C 
ATOM     16  C   UNL     1      -1.379   3.429   0.000  0.00  0.00    +0.132 C 
ATOM     17  C   UNL     1      -0.166   2.548   0.000  0.00  0.00    +0.280 C 
ATOM     18  N   UNL     1      -0.166   1.048   0.000  0.00  0.00    -0.251 N 
ATOM     19  H   UNL     1       0.687   0.555   0.000  0.00  0.00    +0.288 HD
ATOM     20  H   UNL     1      -1.019   0.555   0.000  0.00  0.00    +0.288 HD
ENDBRANCH   3   2
BRANCH   4   6
ATOM      6  C   UNL     1       1.737   8.653   0.000  0.00  0.00    +0.116 C 
BRANCH   6   7
ATOM      7  C   UNL     1       3.229   8.496   0.000  0.00  0.00    +0.146 C 
BRANCH   7   8
ATOM      8  C   UNL     1       4.111   9.710   0.000  0.00  0.00    +0.278 C 
ATOM      9  N   UNL     1       3.501  11.080   0.000  0.00  0.00    -0.104 NA
ATOM     10  H   UNL     1       4.079  11.877   0.000  0.00  0.00    +0.363 HD
ATOM     11  N   UNL     1       5.603   9.553   0.000  0.00  0.00    -0.251 N 
ATOM     12  H   UNL     1       6.181  10.350   0.000  0.00  0.00    +0.288 HD
ATOM     13  H   UNL     1       6.003   8.654   0.000  0.00  0.00    +0.288 HD
ENDBRANCH   7   8
ENDBRANCH   6   7
ENDBRANCH   4   6
TORSDOF 4