REMARK  Name = NSC 785162
REMARK  5 active torsions:
REMARK  status: ('A' for Active; 'I' for Inactive)
REMARK    1  A    between atoms: O_1  and  C_2
REMARK    2  A    between atoms: O_1  and  C_26
REMARK    3  A    between atoms: C_3  and  O_23
REMARK    4  A    between atoms: N_10  and  C_21
REMARK    5  A    between atoms: O_23  and  C_24
REMARK                            x       y       z     vdW  Elec       q    Type
REMARK                         _______ _______ _______ _____ _____    ______ ____
ROOT
ATOM      2  C   UNL     1       4.922   1.025   0.000  0.00  0.00    +0.170 A 
ATOM      3  C   UNL     1       3.623   0.275   0.000  0.00  0.00    +0.162 A 
ATOM      4  C   UNL     1       3.623  -1.226   0.000  0.00  0.00    +0.050 A 
ATOM      5  C   UNL     1       4.922  -1.976   0.000  0.00  0.00    +0.008 A 
ATOM      6  C   UNL     1       6.221  -1.226   0.000  0.00  0.00    -0.034 A 
ATOM      7  C   UNL     1       7.520  -1.976   0.000  0.00  0.00    +0.059 C 
ATOM      8  C   UNL     1       8.819  -1.226   0.000  0.00  0.00    +0.092 C 
ATOM      9  N   UNL     1      10.118  -1.976   0.000  0.00  0.00    -0.298 NA
ATOM     10  C   UNL     1      11.417  -1.226   0.000  0.00  0.00    +0.089 C 
ATOM     11  C   UNL     1      11.417   0.275   0.000  0.00  0.00    +0.051 C 
ATOM     12  C   UNL     1      10.118   1.025   0.000  0.00  0.00    -0.037 A 
ATOM     13  C   UNL     1      10.118   2.525   0.000  0.00  0.00    +0.053 A 
ATOM     14  C   UNL     1       8.819   3.275   0.000  0.00  0.00    +0.167 A 
ATOM     15  O   UNL     1       8.507   4.742   0.000  0.00  0.00    -0.453 OA
ATOM     16  C   UNL     1       7.015   4.899   0.000  0.00  0.00    +0.466 C 
ATOM     17  O   UNL     1       6.405   3.528   0.000  0.00  0.00    -0.452 OA
ATOM     18  C   UNL     1       7.520   2.525   0.000  0.00  0.00    +0.174 A 
ATOM     19  C   UNL     1       7.520   1.025   0.000  0.00  0.00    +0.036 A 
ATOM     20  C   UNL     1      10.118  -3.475   0.000  0.00  0.00    +0.105 C 
ATOM     21  C   UNL     1       8.819   0.275   0.000  0.00  0.00    -0.015 A 
ATOM     24  C   UNL     1       6.221   0.275   0.000  0.00  0.00    +0.035 A 
ENDROOT
BRANCH   2   1
ATOM      1  O   UNL     1       4.922   2.525   0.000  0.00  0.00    -0.491 OA
ATOM     25  C   UNL     1       3.623   3.275   0.000  0.00  0.00    +0.277 C 
ENDBRANCH   2   1
BRANCH   3  22
ATOM     22  O   UNL     1       2.324   1.025   0.000  0.00  0.00    -0.491 OA
ATOM     23  C   UNL     1       1.025   0.275   0.000  0.00  0.00    +0.277 C 
ENDBRANCH   3  22
TORSDOF 2