REMARK  Name = NSC 14135
REMARK  7 active torsions:
REMARK  status: ('A' for Active; 'I' for Inactive)
REMARK    1  A    between atoms: C_2  and  C_3
REMARK    2  A    between atoms: C_2  and  C_4
REMARK    3  A    between atoms: C_8  and  O_9
REMARK    4  A    between atoms: O_9  and  C_10
REMARK    5  A    between atoms: C_12  and  O_13
REMARK    6  A    between atoms: C_14  and  C_15
REMARK    7  A    between atoms: C_15  and  C_16
REMARK                            x       y       z     vdW  Elec       q    Type
REMARK                         _______ _______ _______ _____ _____    ______ ____
ROOT
ATOM      1  O   UNL     1      -0.204  -5.484   0.000  0.00  0.00    -0.481 OA
ATOM      2  C   UNL     1       1.095  -6.234   0.000  0.00  0.00    +0.124 C 
ATOM      3  C   UNL     1       2.572  -6.494   0.000  0.00  0.00    +0.060 C 
ATOM      4  C   UNL     1       1.608  -4.824   0.000  0.00  0.00    +0.060 C 
ATOM      5  C   UNL     1       1.095  -7.734   0.000  0.00  0.00    +0.020 C 
ATOM      6  C   UNL     1      -0.204  -8.484   0.000  0.00  0.00    +0.015 C 
ATOM      7  C   UNL     1      -1.503  -7.734   0.000  0.00  0.00    +0.059 A 
ATOM      8  C   UNL     1      -2.802  -8.484   0.000  0.00  0.00    +0.134 A 
ATOM     11  C   UNL     1      -4.101  -7.734   0.000  0.00  0.00    +0.092 A 
ATOM     12  C   UNL     1      -4.101  -6.234   0.000  0.00  0.00    +0.134 A 
ATOM     15  C   UNL     1      -2.802  -5.484   0.000  0.00  0.00    +0.101 A 
ATOM     19  C   UNL     1      -1.503  -6.234   0.000  0.00  0.00    +0.146 A 
ENDROOT
BRANCH  15  16
ATOM     16  C   UNL     1      -2.802  -3.984   0.000  0.00  0.00    +0.167 C 
ATOM     17  C   UNL     1      -1.503  -3.234   0.000  0.00  0.00    +0.092 C 
ATOM     18  O   UNL     1      -4.101  -3.234   0.000  0.00  0.00    -0.292 OA
ENDBRANCH  15  16
BRANCH   8   9
ATOM      9  O   UNL     1      -2.802  -9.984   0.000  0.00  0.00    -0.494 OA
ATOM     10  C   UNL     1      -4.101 -10.734   0.000  0.00  0.00    +0.277 C 
ENDBRANCH   8   9
BRANCH  12  13
ATOM     13  O   UNL     1      -5.400  -5.484   0.000  0.00  0.00    -0.506 OA
ATOM     14  H   UNL     1      -5.400  -4.547   0.000  0.00  0.00    +0.292 HD
ENDBRANCH  12  13
TORSDOF 3