REMARK  Name = NSC 226080
REMARK  19 active torsions:
REMARK  status: ('A' for Active; 'I' for Inactive)
REMARK    1  A    between atoms: C_1  and  O_2
REMARK    2  A    between atoms: C_5  and  C_6
REMARK    3  A    between atoms: C_6  and  C_7
REMARK    4  A    between atoms: C_7  and  C_8
REMARK    5  A    between atoms: C_7  and  C_9
REMARK    6  A    between atoms: C_16  and  O_17
REMARK    7  A    between atoms: C_21  and  O_22
REMARK    8  A    between atoms: O_22  and  C_23
REMARK    9  A    between atoms: C_24  and  C_25
REMARK   10  A    between atoms: C_31  and  C_32
REMARK   11  A    between atoms: C_34  and  C_35
REMARK   12  A    between atoms: C_38  and  O_39
REMARK   13  A    between atoms: O_39  and  C_40
REMARK   14  A    between atoms: C_41  and  O_42
REMARK   15  A    between atoms: C_43  and  C_44
REMARK   16  A    between atoms: C_46  and  C_47
REMARK   17  A    between atoms: C_52  and  C_53
REMARK   18  A    between atoms: C_63  and  O_64
REMARK   19  A    between atoms: O_64  and  C_65
REMARK                            x       y       z     vdW  Elec       q    Type
REMARK                         _______ _______ _______ _____ _____    ______ ____
ROOT
ATOM     10  C   UNL     1      12.914   2.248   0.000  0.00  0.00    +0.186 C 
ATOM     11  O   UNL     1      12.309   0.875   0.000  0.00  0.00    -0.459 OA
ATOM     12  C   UNL     1      12.013  -0.595   0.000  0.00  0.00    +0.328 C 
ATOM     13  C   UNL     1      12.040  -2.095   0.000  0.00  0.00    +0.185 C 
ATOM     14  N   UNL     1      12.389  -3.554   0.000  0.00  0.00    -0.282 N 
ATOM     15  C   UNL     1      13.043  -4.904   0.000  0.00  0.00    +0.288 C 
ATOM     16  C   UNL     1      13.972  -6.081   0.000  0.00  0.00    +0.276 C 
ATOM     17  C   UNL     1      15.133  -7.032   0.000  0.00  0.00    +0.240 C 
ATOM     20  O   UNL     1      16.832  -6.753   0.000  0.00  0.00    -0.339 OA
ATOM     21  C   UNL     1      17.923  -8.085   0.000  0.00  0.00    +0.125 C 
ATOM     22  C   UNL     1      19.422  -8.139   0.000  0.00  0.00    +0.067 C 
ATOM     23  C   UNL     1      20.898  -7.870   0.000  0.00  0.00    +0.146 C 
ATOM     26  C   UNL     1      22.281  -7.290   0.000  0.00  0.00    -0.044 C 
ATOM     27  C   UNL     1      23.007  -8.602   0.000  0.00  0.00    +0.042 C 
ATOM     28  C   UNL     1      23.346  -6.243   0.000  0.00  0.00    +0.001 C 
ATOM     29  C   UNL     1      24.519  -5.318   0.000  0.00  0.00    +0.000 C 
ATOM     30  C   UNL     1      24.972  -3.888   0.000  0.00  0.00    -0.000 C 
ATOM     31  C   UNL     1      25.722  -2.589   0.000  0.00  0.00    -0.004 C 
ATOM     32  C   UNL     1      25.533  -1.101   0.000  0.00  0.00    -0.024 C 
ATOM     33  C   UNL     1      25.668   0.393   0.000  0.00  0.00    +0.009 C 
ATOM     34  C   UNL     1      27.127   0.742   0.000  0.00  0.00    +0.012 C 
ATOM     35  C   UNL     1      25.163   1.805   0.000  0.00  0.00    +0.018 C 
ATOM     36  C   UNL     1      24.367   3.076   0.000  0.00  0.00    +0.055 C 
ATOM     37  C   UNL     1      25.544   4.006   0.000  0.00  0.00    +0.015 C 
ATOM     38  C   UNL     1      23.316   4.147   0.000  0.00  0.00    +0.167 C 
ATOM     39  O   UNL     1      24.266   5.307   0.000  0.00  0.00    -0.294 OA
ATOM     40  C   UNL     1      22.059   4.966   0.000  0.00  0.00    +0.216 C 
ATOM     43  C   UNL     1      20.656   5.496   0.000  0.00  0.00    +0.176 C 
ATOM     46  C   UNL     1      19.172   5.712   0.000  0.00  0.00    -0.045 C 
ATOM     47  C   UNL     1      19.226   7.211   0.000  0.00  0.00    +0.041 C 
ATOM     48  C   UNL     1      17.719   5.364   0.000  0.00  0.00    -0.015 C 
ATOM     49  C   UNL     1      16.238   5.176   0.000  0.00  0.00    +0.075 C 
ATOM     50  C   UNL     1      15.658   6.559   0.000  0.00  0.00    +0.020 C 
ATOM     51  C   UNL     1      14.926   4.450   0.000  0.00  0.00    +0.143 C 
ATOM     52  O   UNL     1      14.061   5.676   0.000  0.00  0.00    -0.297 OA
ATOM     53  C   UNL     1      17.034  -9.353   0.000  0.00  0.00    +0.032 C 
ATOM     54  C   UNL     1      15.553  -9.595   0.000  0.00  0.00    +0.011 C 
ATOM     55  C   UNL     1      14.603  -8.435   0.000  0.00  0.00    +0.054 C 
ATOM     56  C   UNL     1      13.123  -8.678   0.000  0.00  0.00    +0.013 C 
ATOM     57  O   UNL     1      12.902  -7.132   0.000  0.00  0.00    -0.281 OA
ATOM     58  O   UNL     1      11.772  -5.700   0.000  0.00  0.00    -0.267 OA
ATOM     59  C   UNL     1      11.300  -4.585   0.000  0.00  0.00    +0.109 C 
ATOM     60  C   UNL     1       9.862  -4.158   0.000  0.00  0.00    +0.019 C 
ATOM     61  C   UNL     1       9.513  -2.699   0.000  0.00  0.00    +0.004 C 
ATOM     62  C   UNL     1      10.602  -1.668   0.000  0.00  0.00    +0.034 C 
ATOM     63  O   UNL     1      10.519  -0.460   0.000  0.00  0.00    -0.249 OA
ATOM     64  C   UNL     1      13.800   3.458   0.000  0.00  0.00    +0.119 C 
ENDROOT
BRANCH  10   8
ATOM      8  C   UNL     1      11.615   2.998   0.000  0.00  0.00    +0.027 C 
ATOM      9  C   UNL     1      10.316   2.248   0.000  0.00  0.00    +0.011 C 
BRANCH   8   7
ATOM      7  C   UNL     1      11.615   4.498   0.000  0.00  0.00    +0.010 C 
BRANCH   7   6
ATOM      1  C   UNL     1       7.718   6.748   0.000  0.00  0.00    +0.143 C 
ATOM      4  C   UNL     1       9.017   7.498   0.000  0.00  0.00    +0.034 C 
ATOM      5  C   UNL     1      10.316   6.748   0.000  0.00  0.00    +0.006 C 
ATOM      6  C   UNL     1      10.316   5.248   0.000  0.00  0.00    -0.008 C 
ATOM     65  C   UNL     1       9.017   4.498   0.000  0.00  0.00    +0.037 C 
ATOM     66  C   UNL     1       7.718   5.248   0.000  0.00  0.00    +0.147 C 
BRANCH   1   2
ATOM      2  O   UNL     1       6.419   7.498   0.000  0.00  0.00    -0.389 OA
ATOM      3  H   UNL     1       6.419   8.468   0.000  0.00  0.00    +0.210 HD
ENDBRANCH   1   2
BRANCH  66  67
ATOM     67  O   UNL     1       6.419   4.498   0.000  0.00  0.00    -0.377 OA
ATOM     68  C   UNL     1       5.120   5.248   0.000  0.00  0.00    +0.194 C 
ENDBRANCH  66  67
ENDBRANCH   7   6
ENDBRANCH   8   7
ENDBRANCH  10   8
BRANCH  17  18
ATOM     18  O   UNL     1      15.521  -5.583   0.000  0.00  0.00    -0.358 OA
ATOM     19  H   UNL     1      16.458  -5.332   0.000  0.00  0.00    +0.213 HD
ENDBRANCH  17  18
BRANCH  23  24
ATOM     24  O   UNL     1      21.325  -9.308   0.000  0.00  0.00    -0.375 OA
ATOM     25  C   UNL     1      22.784  -9.657   0.000  0.00  0.00    +0.194 C 
ENDBRANCH  23  24
BRANCH  40  41
ATOM     41  O   UNL     1      22.738   6.304   0.000  0.00  0.00    -0.369 OA
ATOM     42  C   UNL     1      24.236   6.385   0.000  0.00  0.00    +0.195 C 
ENDBRANCH  40  41
BRANCH  43  44
ATOM     44  O   UNL     1      21.031   6.948   0.000  0.00  0.00    -0.384 OA
ATOM     45  H   UNL     1      21.966   7.208   0.000  0.00  0.00    +0.210 HD
ENDBRANCH  43  44
TORSDOF 9