REMARK  Name = NSC 785151
REMARK  6 active torsions:
REMARK  status: ('A' for Active; 'I' for Inactive)
REMARK    1  A    between atoms: C_1  and  O_2
REMARK    2  A    between atoms: O_2  and  C_3
REMARK    3  A    between atoms: C_4  and  O_5
REMARK    4  A    between atoms: O_5  and  C_6
REMARK    5  A    between atoms: C_23  and  O_24
REMARK    6  A    between atoms: O_24  and  C_25
REMARK                            x       y       z     vdW  Elec       q    Type
REMARK                         _______ _______ _______ _____ _____    ______ ____
ROOT
ATOM      1  C   UNL     1      -7.342   8.982   0.000  0.00  0.00    +0.205 A 
ATOM      4  C   UNL     1      -7.326   7.482   0.000  0.00  0.00    +0.174 A 
ATOM      7  C   UNL     1      -6.019   6.746   0.000  0.00  0.00    +0.038 A 
ATOM      8  C   UNL     1      -6.003   5.246   0.000  0.00  0.00    -0.006 A 
ATOM      9  C   UNL     1      -4.696   4.510   0.000  0.00  0.00    -0.015 A 
ATOM     10  C   UNL     1      -3.405   5.274   0.000  0.00  0.00    +0.034 A 
ATOM     11  C   UNL     1      -3.421   6.774   0.000  0.00  0.00    +0.051 A 
ATOM     12  N   UNL     1      -2.130   7.538   0.000  0.00  0.00    -0.319 N 
ATOM     13  H   UNL     1      -1.272   7.055   0.000  0.00  0.00    +0.169 HD
ATOM     14  C   UNL     1      -2.146   9.038   0.000  0.00  0.00    +0.297 A 
ATOM     15  O   UNL     1      -0.856   9.802   0.000  0.00  0.00    -0.264 OA
ATOM     16  C   UNL     1      -3.453   9.774   0.000  0.00  0.00    +0.254 A 
ATOM     17  O   UNL     1      -3.470  11.274   0.000  0.00  0.00    -0.281 OA
ATOM     18  C   UNL     1      -4.744   9.010   0.000  0.00  0.00    +0.082 A 
ATOM     19  C   UNL     1      -4.680   3.010   0.000  0.00  0.00    +0.008 A 
ATOM     20  C   UNL     1      -5.971   2.246   0.000  0.00  0.00    +0.001 A 
ATOM     21  C   UNL     1      -7.278   2.982   0.000  0.00  0.00    +0.001 A 
ATOM     22  C   UNL     1      -7.294   4.482   0.000  0.00  0.00    +0.009 A 
ATOM     23  C   UNL     1      -4.728   7.510   0.000  0.00  0.00    +0.024 A 
ATOM     24  C   UNL     1      -6.051   9.746   0.000  0.00  0.00    +0.177 A 
ENDROOT
BRANCH   1   2
ATOM      2  O   UNL     1      -8.649   9.718   0.000  0.00  0.00    -0.488 OA
ATOM      3  C   UNL     1      -8.665  11.217   0.000  0.00  0.00    +0.277 C 
ENDBRANCH   1   2
BRANCH   4   5
ATOM      5  O   UNL     1      -8.617   6.718   0.000  0.00  0.00    -0.491 OA
ATOM      6  C   UNL     1      -9.924   7.454   0.000  0.00  0.00    +0.277 C 
ENDBRANCH   4   5
BRANCH  24  25
ATOM     25  O   UNL     1      -6.067  11.246   0.000  0.00  0.00    -0.491 OA
ATOM     26  C   UNL     1      -4.777  12.009   0.000  0.00  0.00    +0.277 C 
ENDBRANCH  24  25
TORSDOF 3