REMARK  Name = NSC 785150
REMARK  8 active torsions:
REMARK  status: ('A' for Active; 'I' for Inactive)
REMARK    1  A    between atoms: C_1  and  O_22
REMARK    2  A    between atoms: C_2  and  O_20
REMARK    3  A    between atoms: C_14  and  O_15
REMARK    4  A    between atoms: O_15  and  C_16
REMARK    5  A    between atoms: O_20  and  C_21
REMARK    6  A    between atoms: O_22  and  C_23
REMARK    7  A    between atoms: C_24  and  O_25
REMARK    8  A    between atoms: O_25  and  C_26
REMARK                            x       y       z     vdW  Elec       q    Type
REMARK                         _______ _______ _______ _____ _____    ______ ____
ROOT
ATOM      1  C   UNL     1      -5.937   7.507   0.000  0.00  0.00    +0.205 A 
ATOM      2  C   UNL     1      -5.939   6.007   0.000  0.00  0.00    +0.174 A 
ATOM      3  C   UNL     1      -4.641   5.256   0.000  0.00  0.00    +0.038 A 
ATOM      4  C   UNL     1      -4.643   3.756   0.000  0.00  0.00    -0.003 A 
ATOM      5  C   UNL     1      -5.942   3.007   0.000  0.00  0.00    +0.009 A 
ATOM      6  C   UNL     1      -5.944   1.507   0.000  0.00  0.00    +0.001 A 
ATOM      7  C   UNL     1      -4.646   0.756   0.000  0.00  0.00    +0.001 A 
ATOM      8  C   UNL     1      -3.346   1.504   0.000  0.00  0.00    +0.012 A 
ATOM      9  C   UNL     1      -3.344   3.004   0.000  0.00  0.00    +0.032 A 
ATOM     10  C   UNL     1      -2.045   3.752   0.000  0.00  0.00    +0.212 C 
ATOM     11  C   UNL     1      -2.043   5.253   0.000  0.00  0.00    +0.120 A 
ATOM     12  N   UNL     1      -0.743   6.001   0.000  0.00  0.00    -0.247 NA
ATOM     13  C   UNL     1      -0.741   7.501   0.000  0.00  0.00    +0.157 A 
ATOM     14  C   UNL     1      -2.039   8.252   0.000  0.00  0.00    +0.149 A 
ATOM     17  C   UNL     1      -3.339   7.504   0.000  0.00  0.00    +0.073 A 
ATOM     18  O   UNL     1      -0.746   3.001   0.000  0.00  0.00    -0.285 OA
ATOM     19  C   UNL     1      -3.341   6.004   0.000  0.00  0.00    +0.030 A 
ATOM     24  C   UNL     1      -4.637   8.256   0.000  0.00  0.00    +0.177 A 
ENDROOT
BRANCH  14  15
ATOM     15  O   UNL     1      -2.037   9.752   0.000  0.00  0.00    -0.493 OA
ATOM     16  C   UNL     1      -0.737  10.501   0.000  0.00  0.00    +0.277 C 
ENDBRANCH  14  15
BRANCH   2  20
ATOM     20  O   UNL     1      -7.239   5.259   0.000  0.00  0.00    -0.491 OA
ATOM     21  C   UNL     1      -8.537   6.010   0.000  0.00  0.00    +0.277 C 
ENDBRANCH   2  20
BRANCH   1  22
ATOM     22  O   UNL     1      -7.235   8.259   0.000  0.00  0.00    -0.488 OA
ATOM     23  C   UNL     1      -7.233   9.759   0.000  0.00  0.00    +0.277 C 
ENDBRANCH   1  22
BRANCH  24  25
ATOM     25  O   UNL     1      -4.635   9.756   0.000  0.00  0.00    -0.491 OA
ATOM     26  C   UNL     1      -3.335  10.504   0.000  0.00  0.00    +0.277 C 
ENDBRANCH  24  25
TORSDOF 4