REMARK  Name = NSC 785144
REMARK  8 active torsions:
REMARK  status: ('A' for Active; 'I' for Inactive)
REMARK    1  A    between atoms: C_1  and  O_24
REMARK    2  A    between atoms: C_2  and  O_3
REMARK    3  A    between atoms: O_3  and  C_4
REMARK    4  A    between atoms: C_5  and  O_6
REMARK    5  A    between atoms: O_6  and  C_7
REMARK    6  A    between atoms: C_17  and  O_18
REMARK    7  A    between atoms: O_18  and  C_19
REMARK    8  A    between atoms: O_24  and  C_25
REMARK                            x       y       z     vdW  Elec       q    Type
REMARK                         _______ _______ _______ _____ _____    ______ ____
ROOT
ATOM      1  C   UNL     1       3.690   9.818   0.000  0.00  0.00    +0.174 A 
ATOM      2  C   UNL     1       4.990  10.567   0.000  0.00  0.00    +0.205 A 
ATOM      5  C   UNL     1       6.288   9.815   0.000  0.00  0.00    +0.173 A 
ATOM      8  C   UNL     1       6.286   8.315   0.000  0.00  0.00    +0.032 A 
ATOM      9  C   UNL     1       7.585   7.563   0.000  0.00  0.00    +0.032 A 
ATOM     10  C   UNL     1       7.583   6.063   0.000  0.00  0.00    +0.112 A 
ATOM     11  N   UNL     1       6.283   5.315   0.000  0.00  0.00    -0.254 NA
ATOM     12  C   UNL     1       4.985   6.066   0.000  0.00  0.00    +0.080 A 
ATOM     13  C   UNL     1       3.535   5.680   0.000  0.00  0.00    +0.013 A 
ATOM     14  C   UNL     1       2.986   4.284   0.000  0.00  0.00    +0.065 A 
ATOM     15  C   UNL     1       1.552   3.844   0.000  0.00  0.00    +0.221 A 
ATOM     16  O   UNL     1       1.326   2.361   0.000  0.00  0.00    -0.284 OA
ATOM     17  C   UNL     1       0.313   4.690   0.000  0.00  0.00    +0.167 A 
ATOM     20  C   UNL     1       0.203   6.186   0.000  0.00  0.00    +0.050 A 
ATOM     21  C   UNL     1       1.304   7.205   0.000  0.00  0.00    +0.013 A 
ATOM     22  C   UNL     1       2.787   6.980   0.000  0.00  0.00    -0.004 A 
ATOM     23  C   UNL     1       4.986   7.566   0.000  0.00  0.00    +0.023 A 
ATOM     26  C   UNL     1       3.688   8.318   0.000  0.00  0.00    +0.038 A 
ENDROOT
BRANCH   2   3
ATOM      3  O   UNL     1       4.992  12.067   0.000  0.00  0.00    -0.488 OA
ATOM      4  C   UNL     1       6.292  12.815   0.000  0.00  0.00    +0.277 C 
ENDBRANCH   2   3
BRANCH   5   6
ATOM      6  O   UNL     1       7.588  10.563   0.000  0.00  0.00    -0.491 OA
ATOM      7  C   UNL     1       8.886   9.812   0.000  0.00  0.00    +0.277 C 
ENDBRANCH   5   6
BRANCH  17  18
ATOM     18  O   UNL     1      -0.987   3.942   0.000  0.00  0.00    -0.491 OA
ATOM     19  C   UNL     1      -2.285   4.694   0.000  0.00  0.00    +0.277 C 
ENDBRANCH  17  18
BRANCH   1  24
ATOM     24  O   UNL     1       2.392  10.570   0.000  0.00  0.00    -0.491 OA
ATOM     25  C   UNL     1       2.394  12.070   0.000  0.00  0.00    +0.277 C 
ENDBRANCH   1  24
TORSDOF 4