REMARK  Name = NSC 7535
REMARK  26 active torsions:
REMARK  status: ('A' for Active; 'I' for Inactive)
REMARK    1  A    between atoms: O_1  and  C_3
REMARK    2  A    between atoms: C_5  and  O_13
REMARK    3  A    between atoms: C_6  and  C_7
REMARK    4  A    between atoms: C_20  and  O_23
REMARK    5  A    between atoms: O_23  and  C_24
REMARK    6  A    between atoms: C_26  and  C_69
REMARK    7  A    between atoms: C_27  and  O_28
REMARK    8  A    between atoms: O_28  and  C_29
REMARK    9  A    between atoms: C_31  and  C_64
REMARK   10  A    between atoms: C_32  and  O_33
REMARK   11  A    between atoms: O_33  and  C_34
REMARK   12  A    between atoms: C_36  and  C_59
REMARK   13  A    between atoms: C_37  and  O_38
REMARK   14  A    between atoms: O_38  and  C_39
REMARK   15  A    between atoms: C_40  and  O_51
REMARK   16  A    between atoms: C_41  and  O_49
REMARK   17  A    between atoms: C_42  and  O_43
REMARK   18  A    between atoms: C_45  and  C_46
REMARK   19  A    between atoms: C_46  and  O_47
REMARK   20  A    between atoms: C_54  and  O_55
REMARK   21  A    between atoms: O_55  and  C_56
REMARK   22  A    between atoms: C_56  and  C_58
REMARK   23  A    between atoms: C_61  and  O_62
REMARK   24  A    between atoms: C_66  and  O_67
REMARK   25  A    between atoms: C_71  and  C_72
REMARK   26  A    between atoms: C_76  and  C_77
REMARK                            x       y       z     vdW  Elec       q    Type
REMARK                         _______ _______ _______ _____ _____    ______ ____
ROOT
ATOM     24  C   UNL     1      21.535   5.250   0.000  0.00  0.00    +0.253 C 
ATOM     25  O   UNL     1      21.535   6.750   0.000  0.00  0.00    -0.346 OA
ATOM     26  C   UNL     1      20.236   7.500   0.000  0.00  0.00    +0.150 C 
ATOM     27  C   UNL     1      18.936   6.750   0.000  0.00  0.00    +0.178 C 
ATOM     66  C   UNL     1      18.936   5.250   0.000  0.00  0.00    +0.151 C 
ATOM     69  C   UNL     1      20.236   9.000   0.000  0.00  0.00    +0.041 C 
ATOM     70  C   UNL     1      20.236   4.500   0.000  0.00  0.00    +0.095 C 
ENDROOT
BRANCH  66  67
ATOM     67  O   UNL     1      17.637   4.500   0.000  0.00  0.00    -0.389 OA
ATOM     68  H   UNL     1      17.637   3.000   0.000  0.00  0.00    +0.210 HD
ENDBRANCH  66  67
BRANCH  24  23
ATOM     23  O   UNL     1      22.834   4.500   0.000  0.00  0.00    -0.348 OA
BRANCH  23  20
ATOM      3  C   UNL     1      30.628   7.500   0.000  0.00  0.00    +0.077 C 
ATOM      4  C   UNL     1      32.054   7.036   0.000  0.00  0.00    +0.067 C 
ATOM      5  C   UNL     1      32.936   8.250   0.000  0.00  0.00    +0.125 C 
ATOM      6  C   UNL     1      32.054   9.463   0.000  0.00  0.00    +0.056 C 
ATOM     15  C   UNL     1      29.329   6.750   0.000  0.00  0.00    +0.025 C 
ATOM     16  C   UNL     1      29.329   5.250   0.000  0.00  0.00    +0.007 C 
ATOM     17  C   UNL     1      28.030   4.500   0.000  0.00  0.00    +0.004 C 
ATOM     18  C   UNL     1      26.731   5.250   0.000  0.00  0.00    -0.002 C 
ATOM     19  C   UNL     1      25.432   4.500   0.000  0.00  0.00    +0.035 C 
ATOM     20  C   UNL     1      24.133   5.250   0.000  0.00  0.00    +0.122 C 
ATOM     21  C   UNL     1      24.133   6.750   0.000  0.00  0.00    +0.032 C 
ATOM     22  C   UNL     1      25.432   7.500   0.000  0.00  0.00    +0.010 C 
ATOM     71  C   UNL     1      26.731   6.750   0.000  0.00  0.00    -0.026 C 
ATOM     72  C   UNL     1      26.731   8.250   0.000  0.00  0.00    +0.012 C 
ATOM     73  C   UNL     1      28.030   7.500   0.000  0.00  0.00    +0.001 C 
ATOM     74  C   UNL     1      28.030   9.000   0.000  0.00  0.00    +0.005 C 
ATOM     75  C   UNL     1      29.329   9.750   0.000  0.00  0.00    +0.010 C 
ATOM     76  C   UNL     1      30.628   9.000   0.000  0.00  0.00    +0.006 C 
ATOM     77  C   UNL     1      30.785  10.492   0.000  0.00  0.00    +0.015 C 
BRANCH   6   7
ATOM      7  C   UNL     1      32.518  10.890   0.000  0.00  0.00    -0.020 C 
ATOM      8  C   UNL     1      33.945  11.354   0.000  0.00  0.00    +0.094 C 
ATOM      9  C   UNL     1      33.945  12.854   0.000  0.00  0.00    +0.332 C 
ATOM     10  O   UNL     1      32.518  13.317   0.000  0.00  0.00    -0.457 OA
ATOM     11  O   UNL     1      35.158  13.735   0.000  0.00  0.00    -0.246 OA
ATOM     12  C   UNL     1      31.636  12.104   0.000  0.00  0.00    +0.264 C 
ENDBRANCH   6   7
BRANCH   3   1
ATOM      1  O   UNL     1      30.785   6.008   0.000  0.00  0.00    -0.388 OA
ATOM      2  H   UNL     1      32.155   5.398   0.000  0.00  0.00    +0.210 HD
ENDBRANCH   3   1
BRANCH   5  13
ATOM     13  O   UNL     1      34.436   8.250   0.000  0.00  0.00    -0.391 OA
ATOM     14  H   UNL     1      35.186   6.951   0.000  0.00  0.00    +0.210 HD
ENDBRANCH   5  13
ENDBRANCH  23  20
ENDBRANCH  24  23
BRANCH  27  28
ATOM     28  O   UNL     1      17.637   7.500   0.000  0.00  0.00    -0.343 OA
BRANCH  28  29
ATOM     29  C   UNL     1      16.339   6.750   0.000  0.00  0.00    +0.254 C 
ATOM     30  O   UNL     1      15.039   7.500   0.000  0.00  0.00    -0.346 OA
ATOM     31  C   UNL     1      13.740   6.750   0.000  0.00  0.00    +0.150 C 
ATOM     32  C   UNL     1      13.740   5.250   0.000  0.00  0.00    +0.178 C 
ATOM     61  C   UNL     1      15.039   4.500   0.000  0.00  0.00    +0.151 C 
ATOM     64  C   UNL     1      12.441   7.500   0.000  0.00  0.00    +0.041 C 
ATOM     65  C   UNL     1      16.339   5.250   0.000  0.00  0.00    +0.095 C 
BRANCH  61  62
ATOM     62  O   UNL     1      15.039   3.000   0.000  0.00  0.00    -0.389 OA
ATOM     63  H   UNL     1      13.740   2.250   0.000  0.00  0.00    +0.210 HD
ENDBRANCH  61  62
BRANCH  32  33
ATOM     33  O   UNL     1      12.441   4.500   0.000  0.00  0.00    -0.343 OA
BRANCH  33  34
ATOM     34  C   UNL     1      11.142   5.250   0.000  0.00  0.00    +0.255 C 
ATOM     35  O   UNL     1      11.142   6.750   0.000  0.00  0.00    -0.346 OA
ATOM     36  C   UNL     1       9.843   7.500   0.000  0.00  0.00    +0.151 C 
ATOM     37  C   UNL     1       8.544   6.750   0.000  0.00  0.00    +0.191 C 
ATOM     54  C   UNL     1       8.544   5.250   0.000  0.00  0.00    +0.212 C 
ATOM     59  C   UNL     1       9.843   9.000   0.000  0.00  0.00    +0.041 C 
ATOM     60  C   UNL     1       9.843   4.500   0.000  0.00  0.00    +0.108 C 
BRANCH  37  38
ATOM     38  O   UNL     1       7.245   7.500   0.000  0.00  0.00    -0.339 OA
BRANCH  38  39
ATOM     39  C   UNL     1       5.946   6.750   0.000  0.00  0.00    +0.282 C 
ATOM     40  C   UNL     1       4.647   7.500   0.000  0.00  0.00    +0.201 C 
ATOM     41  C   UNL     1       3.348   6.750   0.000  0.00  0.00    +0.179 C 
ATOM     42  C   UNL     1       3.348   5.250   0.000  0.00  0.00    +0.177 C 
ATOM     45  C   UNL     1       4.647   4.500   0.000  0.00  0.00    +0.178 C 
ATOM     53  O   UNL     1       5.946   5.250   0.000  0.00  0.00    -0.341 OA
BRANCH  42  43
ATOM     43  O   UNL     1       2.049   4.500   0.000  0.00  0.00    -0.386 OA
ATOM     44  H   UNL     1       0.750   5.250   0.000  0.00  0.00    +0.210 HD
ENDBRANCH  42  43
BRANCH  41  49
ATOM     49  O   UNL     1       2.049   7.500   0.000  0.00  0.00    -0.386 OA
ATOM     50  H   UNL     1       0.750   6.750   0.000  0.00  0.00    +0.210 HD
ENDBRANCH  41  49
BRANCH  40  51
ATOM     51  O   UNL     1       4.647   9.000   0.000  0.00  0.00    -0.384 OA
ATOM     52  H   UNL     1       3.348   9.750   0.000  0.00  0.00    +0.210 HD
ENDBRANCH  40  51
BRANCH  45  46
ATOM     46  C   UNL     1       4.647   3.000   0.000  0.00  0.00    +0.190 C 
BRANCH  46  47
ATOM     47  O   UNL     1       3.348   2.250   0.000  0.00  0.00    -0.392 OA
ATOM     48  H   UNL     1       3.348   0.750   0.000  0.00  0.00    +0.210 HD
ENDBRANCH  46  47
ENDBRANCH  45  46
ENDBRANCH  38  39
ENDBRANCH  37  38
BRANCH  54  55
ATOM     55  O   UNL     1       7.245   4.500   0.000  0.00  0.00    -0.459 OA
BRANCH  55  56
ATOM     56  C   UNL     1       7.245   3.000   0.000  0.00  0.00    +0.304 C 
ATOM     57  O   UNL     1       5.946   2.250   0.000  0.00  0.00    -0.251 OA
ATOM     58  C   UNL     1       8.544   2.250   0.000  0.00  0.00    +0.136 C 
ENDBRANCH  55  56
ENDBRANCH  54  55
ENDBRANCH  33  34
ENDBRANCH  32  33
ENDBRANCH  28  29
ENDBRANCH  27  28
TORSDOF 20