REMARK  Name = NSC 96911
REMARK  2 active torsions:
REMARK  status: ('A' for Active; 'I' for Inactive)
REMARK    1  A    between atoms: C_13  and  C_14
REMARK    2  A    between atoms: C_15  and  C_16
REMARK                            x       y       z     vdW  Elec       q    Type
REMARK                         _______ _______ _______ _____ _____    ______ ____
ROOT
ATOM      1  N   UNL     1      -5.946  -2.250   0.000  0.00  0.00    -0.226 NA
ATOM      2  C   UNL     1      -4.647  -3.000   0.000  0.00  0.00    +0.166 A 
ATOM      3  C   UNL     1      -4.647  -4.500   0.000  0.00  0.00    +0.171 A 
ATOM      4  C   UNL     1      -3.348  -5.250   0.000  0.00  0.00    +0.282 A 
ATOM      5  N   UNL     1      -2.049  -4.500   0.000  0.00  0.00    -0.273 N 
ATOM      6  H   UNL     1      -0.750  -5.250   0.000  0.00  0.00    +0.173 HD
ATOM      7  C   UNL     1      -2.049  -3.000   0.000  0.00  0.00    +0.328 A 
ATOM      8  O   UNL     1      -0.750  -2.250   0.000  0.00  0.00    -0.247 OA
ATOM      9  O   UNL     1      -3.348  -6.750   0.000  0.00  0.00    -0.265 OA
ATOM     10  N   UNL     1      -5.946  -5.250   0.000  0.00  0.00    -0.237 NA
ATOM     11  C   UNL     1      -7.245  -4.500   0.000  0.00  0.00    +0.090 A 
ATOM     12  C   UNL     1      -8.544  -5.250   0.000  0.00  0.00    +0.033 A 
ATOM     13  C   UNL     1      -9.843  -4.500   0.000  0.00  0.00    -0.045 A 
ATOM     14  C   UNL     1     -11.142  -5.250   0.000  0.00  0.00    +0.044 C 
ATOM     15  C   UNL     1      -9.843  -3.000   0.000  0.00  0.00    -0.045 A 
ATOM     16  C   UNL     1     -11.142  -2.250   0.000  0.00  0.00    +0.044 C 
ATOM     17  C   UNL     1      -8.544  -2.250   0.000  0.00  0.00    +0.033 A 
ATOM     18  N   UNL     1      -3.348  -2.250   0.000  0.00  0.00    -0.291 N 
ATOM     19  H   UNL     1      -3.348  -0.750   0.000  0.00  0.00    +0.172 HD
ATOM     20  C   UNL     1      -7.245  -3.000   0.000  0.00  0.00    +0.092 A 
ENDROOT
TORSDOF 0