REMARK  Name = NSC 145150
REMARK  4 active torsions:
REMARK  status: ('A' for Active; 'I' for Inactive)
REMARK    1  A    between atoms: C_7  and  C_8
REMARK    2  A    between atoms: C_8  and  O_9
REMARK    3  A    between atoms: C_14  and  C_15
REMARK    4  A    between atoms: C_16  and  C_17
REMARK                            x       y       z     vdW  Elec       q    Type
REMARK                         _______ _______ _______ _____ _____    ______ ____
ROOT
ATOM      1  O   UNL     1       1.656  -0.541   0.000  0.00  0.00    -0.245 OA
ATOM      2  C   UNL     1       2.955  -1.291   0.000  0.00  0.00    +0.335 C 
ATOM      3  C   UNL     1       4.254  -0.541   0.000  0.00  0.00    +0.041 C 
ATOM      4  C   UNL     1       4.254   0.959   0.000  0.00  0.00    +0.020 C 
ATOM      5  C   UNL     1       5.553  -1.291   0.000  0.00  0.00    +0.037 C 
ATOM      6  C   UNL     1       5.553  -2.791   0.000  0.00  0.00    +0.078 C 
ATOM      7  C   UNL     1       6.980  -3.255   0.000  0.00  0.00    +0.040 C 
ATOM     12  C   UNL     1       7.861  -2.041   0.000  0.00  0.00    -0.011 C 
ATOM     13  C   UNL     1       4.254  -3.541   0.000  0.00  0.00    +0.242 C 
ATOM     14  C   UNL     1       6.980  -0.828   0.000  0.00  0.00    +0.034 C 
ATOM     15  C   UNL     1       6.980   0.672   0.000  0.00  0.00    +0.019 C 
ATOM     16  C   UNL     1       8.193   1.554   0.000  0.00  0.00    +0.013 C 
ATOM     17  C   UNL     1       5.553   1.136   0.000  0.00  0.00    -0.072 C 
ATOM     18  C   UNL     1       5.090   2.562   0.000  0.00  0.00    +0.039 C 
ATOM     19  C   UNL     1       4.671  -0.078   0.000  0.00  0.00    -0.015 C 
ATOM     20  O   UNL     1       2.955  -2.791   0.000  0.00  0.00    -0.461 OA
ENDROOT
BRANCH   7   8
ATOM      8  C   UNL     1       7.443  -4.681   0.000  0.00  0.00    +0.333 C 
ATOM     11  O   UNL     1       6.440  -5.796   0.000  0.00  0.00    -0.245 OA
BRANCH   8   9
ATOM      9  O   UNL     1       8.911  -4.993   0.000  0.00  0.00    -0.477 OA
ATOM     10  H   UNL     1       9.200  -5.884   0.000  0.00  0.00    +0.295 HD
ENDBRANCH   8   9
ENDBRANCH   7   8
TORSDOF 2