REMARK  Name = NSC 87511
REMARK  7 active torsions:
REMARK  status: ('A' for Active; 'I' for Inactive)
REMARK    1  A    between atoms: C_2  and  C_3
REMARK    2  A    between atoms: C_9  and  C_10
REMARK    3  A    between atoms: C_11  and  O_12
REMARK    4  A    between atoms: C_17  and  O_18
REMARK    5  A    between atoms: C_22  and  C_23
REMARK    6  A    between atoms: C_26  and  O_27
REMARK    7  A    between atoms: O_27  and  C_28
REMARK                            x       y       z     vdW  Elec       q    Type
REMARK                         _______ _______ _______ _____ _____    ______ ____
ROOT
ATOM      3  C   UNL     1      -9.944  -0.469   0.000  0.00  0.00    +0.099 A 
ATOM      4  C   UNL     1      -9.099  -1.709   0.000  0.00  0.00    +0.157 A 
ATOM      5  C   UNL     1      -9.750  -3.060   0.000  0.00  0.00    +0.105 A 
ATOM      6  C   UNL     1      -9.099  -4.412   0.000  0.00  0.00    +0.348 C 
ATOM      7  O   UNL     1      -7.637  -4.745   0.000  0.00  0.00    -0.418 OA
ATOM      8  C   UNL     1      -6.464  -3.810   0.000  0.00  0.00    +0.181 A 
ATOM      9  C   UNL     1      -5.165  -4.560   0.000  0.00  0.00    +0.038 A 
ATOM     10  C   UNL     1      -5.165  -6.060   0.000  0.00  0.00    +0.051 C 
ATOM     11  C   UNL     1      -3.866  -3.810   0.000  0.00  0.00    +0.138 A 
ATOM     14  C   UNL     1      -3.866  -2.310   0.000  0.00  0.00    +0.113 A 
ATOM     15  C   UNL     1      -2.751  -1.307   0.000  0.00  0.00    +0.346 C 
ATOM     16  O   UNL     1      -1.284  -1.618   0.000  0.00  0.00    -0.245 OA
ATOM     17  O   UNL     1      -3.361   0.064   0.000  0.00  0.00    -0.427 OA
ATOM     18  C   UNL     1      -4.853  -0.093   0.000  0.00  0.00    +0.345 C 
ATOM     21  C   UNL     1      -5.165  -1.560   0.000  0.00  0.00    +0.083 A 
ATOM     22  C   UNL     1      -6.464  -2.310   0.000  0.00  0.00    +0.181 A 
ATOM     23  O   UNL     1     -10.035  -5.584   0.000  0.00  0.00    -0.244 OA
ATOM     24  C   UNL     1     -11.246  -3.172   0.000  0.00  0.00    -0.029 A 
ATOM     25  C   UNL     1     -11.897  -4.524   0.000  0.00  0.00    +0.045 C 
ATOM     26  C   UNL     1     -12.091  -1.933   0.000  0.00  0.00    +0.050 A 
ATOM     27  O   UNL     1      -7.637  -1.375   0.000  0.00  0.00    -0.450 OA
ATOM     28  C   UNL     1     -11.440  -0.582   0.000  0.00  0.00    +0.134 A 
ENDROOT
BRANCH   3   2
ATOM      1  O   UNL     1     -10.138   2.121   0.000  0.00  0.00    -0.295 OA
ATOM      2  C   UNL     1      -9.293   0.882   0.000  0.00  0.00    +0.266 C 
ENDBRANCH   3   2
BRANCH  11  12
ATOM     12  O   UNL     1      -2.567  -4.560   0.000  0.00  0.00    -0.506 OA
ATOM     13  H   UNL     1      -2.567  -5.497   0.000  0.00  0.00    +0.292 HD
ENDBRANCH  11  12
BRANCH  18  19
ATOM     19  O   UNL     1      -5.857   1.022   0.000  0.00  0.00    -0.354 OA
ATOM     20  H   UNL     1      -5.557   1.944   0.000  0.00  0.00    +0.214 HD
ENDBRANCH  18  19
BRANCH  28  29
ATOM     29  O   UNL     1     -12.285   0.658   0.000  0.00  0.00    -0.494 OA
ATOM     30  C   UNL     1     -13.781   0.546   0.000  0.00  0.00    +0.277 C 
ENDBRANCH  28  29
TORSDOF 4