REMARK  Name = NSC 90636#2
REMARK  2 active torsions:
REMARK  status: ('A' for Active; 'I' for Inactive)
REMARK    1  A    between atoms: S_1  and  O_2
REMARK    2  A    between atoms: S_1  and  O_4
REMARK                            x       y       z     vdW  Elec       q    Type
REMARK                         _______ _______ _______ _____ _____    ______ ____
ROOT
ATOM      1  S   UNL     1      16.787   5.908   0.000  0.00  0.00    +0.205 S 
ATOM      4  O   UNL     1      15.290   5.803   0.000  0.00  0.00    -0.118 OA
ATOM      7  O   UNL     1      18.283   6.013   0.000  0.00  0.00    -0.118 OA
ENDROOT
BRANCH   1   2
ATOM      2  O   UNL     1      16.891   4.412   0.000  0.00  0.00    -0.231 OA
ATOM      3  H   UNL     1      16.087   3.869   0.000  0.00  0.00    +0.247 HD
ENDBRANCH   1   2
BRANCH   1   5
ATOM      5  O   UNL     1      16.682   7.405   0.000  0.00  0.00    -0.231 OA
ATOM      6  H   UNL     1      17.486   7.947   0.000  0.00  0.00    +0.247 HD
ENDBRANCH   1   5
TORSDOF 2