REMARK  Name = NSC 255109
REMARK  12 active torsions:
REMARK  status: ('A' for Active; 'I' for Inactive)
REMARK    1  A    between atoms: C_7  and  C_36
REMARK    2  A    between atoms: C_11  and  O_34
REMARK    3  A    between atoms: C_12  and  O_28
REMARK    4  A    between atoms: C_13  and  C_14
REMARK    5  A    between atoms: C_16  and  C_17
REMARK    6  A    between atoms: C_18  and  O_19
REMARK    7  A    between atoms: C_21  and  O_22
REMARK    8  A    between atoms: O_22  and  C_23
REMARK    9  A    between atoms: C_25  and  C_26
REMARK   10  A    between atoms: O_28  and  C_29
REMARK   11  A    between atoms: O_34  and  C_35
REMARK   12  A    between atoms: C_41  and  N_42
REMARK                            x       y       z     vdW  Elec       q    Type
REMARK                         _______ _______ _______ _____ _____    ______ ____
ROOT
ATOM      1  O   UNL     1      -2.341  -7.420   0.000  0.00  0.00    -0.286 OA
ATOM      2  C   UNL     1      -1.042  -6.670   0.000  0.00  0.00    +0.205 C 
ATOM      3  C   UNL     1      -1.042  -5.170   0.000  0.00  0.00    +0.085 C 
ATOM      4  N   UNL     1      -3.079  -5.763   0.000  0.00  0.00    -0.279 N 
ATOM      5  H   UNL     1      -3.668  -4.384   0.000  0.00  0.00    +0.155 HD
ATOM      6  C   UNL     1      -4.378  -6.513   0.000  0.00  0.00    +0.244 C 
ATOM      7  C   UNL     1      -3.768  -7.884   0.000  0.00  0.00    +0.012 C 
ATOM      8  C   UNL     1      -5.260  -7.727   0.000  0.00  0.00    +0.008 C 
ATOM      9  C   UNL     1      -5.572  -9.194   0.000  0.00  0.00    -0.001 C 
ATOM     10  C   UNL     1      -5.572 -10.694   0.000  0.00  0.00    +0.008 C 
ATOM     11  C   UNL     1      -4.080 -10.851   0.000  0.00  0.00    +0.186 C 
ATOM     12  C   UNL     1      -4.246 -12.342   0.000  0.00  0.00    +0.236 C 
ATOM     13  C   UNL     1      -3.032 -13.223   0.000  0.00  0.00    -0.033 C 
ATOM     14  C   UNL     1      -3.184 -14.716   0.000  0.00  0.00    +0.042 C 
ATOM     15  C   UNL     1      -1.666 -12.605   0.000  0.00  0.00    -0.019 C 
ATOM     16  C   UNL     1      -0.239 -12.141   0.000  0.00  0.00    +0.040 C 
ATOM     17  C   UNL     1       0.371 -13.511   0.000  0.00  0.00    +0.014 C 
ATOM     18  C   UNL     1       1.060 -11.391   0.000  0.00  0.00    +0.150 C 
ATOM     21  C   UNL     1       2.551 -11.548   0.000  0.00  0.00    +0.147 C 
ATOM     24  C   UNL     1       2.863 -10.081   0.000  0.00  0.00    +0.037 C 
ATOM     25  C   UNL     1       2.863  -8.581   0.000  0.00  0.00    -0.007 C 
ATOM     26  C   UNL     1       3.978  -7.577   0.000  0.00  0.00    +0.008 C 
ATOM     27  C   UNL     1       1.371  -8.424   0.000  0.00  0.00    +0.044 C 
ATOM     36  C   UNL     1      -2.554  -8.765   0.000  0.00  0.00    +0.049 C 
ATOM     37  O   UNL     1      -5.805  -6.050   0.000  0.00  0.00    -0.270 OA
ATOM     38  C   UNL     1       0.257  -4.420   0.000  0.00  0.00    +0.080 C 
ATOM     39  C   UNL     1       1.556  -5.170   0.000  0.00  0.00    +0.202 C 
ATOM     40  O   UNL     1       2.855  -4.420   0.000  0.00  0.00    -0.286 OA
ATOM     41  C   UNL     1       1.556  -6.670   0.000  0.00  0.00    +0.079 C 
ATOM     45  C   UNL     1       0.257  -7.420   0.000  0.00  0.00    +0.026 C 
ENDROOT
BRANCH  41  42
ATOM     42  N   UNL     1       2.965  -7.183   0.000  0.00  0.00    -0.355 N 
ATOM     43  H   UNL     1       3.226  -8.660   0.000  0.00  0.00    +0.142 HD
ATOM     44  H   UNL     1       4.114  -6.219   0.000  0.00  0.00    +0.142 HD
ENDBRANCH  41  42
BRANCH  18  19
ATOM     19  O   UNL     1       0.748  -9.924   0.000  0.00  0.00    -0.389 OA
ATOM     20  H   UNL     1      -0.679  -9.460   0.000  0.00  0.00    +0.210 HD
ENDBRANCH  18  19
BRANCH  21  22
ATOM     22  O   UNL     1       3.433 -12.761   0.000  0.00  0.00    -0.377 OA
ATOM     23  C   UNL     1       4.925 -12.605   0.000  0.00  0.00    +0.194 C 
ENDBRANCH  21  22
BRANCH  11  34
ATOM     34  O   UNL     1      -2.911  -9.911   0.000  0.00  0.00    -0.372 OA
ATOM     35  C   UNL     1      -1.512 -10.453   0.000  0.00  0.00    +0.195 C 
ENDBRANCH  11  34
BRANCH  12  28
ATOM     28  O   UNL     1      -5.618 -12.947   0.000  0.00  0.00    -0.440 OA
BRANCH  28  29
ATOM     29  C   UNL     1      -5.780 -14.439   0.000  0.00  0.00    +0.398 C 
ATOM     30  O   UNL     1      -4.569 -15.324   0.000  0.00  0.00    -0.227 OA
ATOM     31  N   UNL     1      -7.152 -15.044   0.000  0.00  0.00    -0.295 N 
ATOM     32  H   UNL     1      -8.363 -14.159   0.000  0.00  0.00    +0.148 HD
ATOM     33  H   UNL     1      -7.313 -16.536   0.000  0.00  0.00    +0.148 HD
ENDBRANCH  28  29
ENDBRANCH  12  28
TORSDOF 6