REMARK  Name = NSC 88466
REMARK  7 active torsions:
REMARK  status: ('A' for Active; 'I' for Inactive)
REMARK    1  A    between atoms: C_3  and  C_4
REMARK    2  A    between atoms: C_5  and  O_6
REMARK    3  A    between atoms: C_8  and  C_9
REMARK    4  A    between atoms: C_10  and  O_11
REMARK    5  A    between atoms: C_13  and  C_14
REMARK    6  A    between atoms: C_15  and  O_16
REMARK    7  A    between atoms: C_21  and  O_22
REMARK                            x       y       z     vdW  Elec       q    Type
REMARK                         _______ _______ _______ _____ _____    ______ ____
ROOT
ATOM      1  O   UNL     1      -8.819   4.226   0.000  0.00  0.00    -0.284 OA
ATOM      2  C   UNL     1      -8.819   2.725   0.000  0.00  0.00    +0.227 C 
ATOM      3  C   UNL     1     -10.118   1.976   0.000  0.00  0.00    +0.045 C 
ATOM      4  C   UNL     1     -11.417   2.725   0.000  0.00  0.00    +0.052 C 
ATOM      5  C   UNL     1     -10.118   0.475   0.000  0.00  0.00    +0.171 C 
ATOM      8  C   UNL     1      -8.819  -0.275   0.000  0.00  0.00    +0.232 C 
ATOM      9  C   UNL     1      -7.520   0.475   0.000  0.00  0.00    +0.085 C 
ATOM     23  O   UNL     1      -8.819  -1.775   0.000  0.00  0.00    -0.283 OA
ATOM     24  C   UNL     1      -7.520   1.976   0.000  0.00  0.00    +0.176 C 
ENDROOT
BRANCH   9  10
ATOM     10  C   UNL     1      -6.221  -0.275   0.000  0.00  0.00    +0.085 C 
ATOM     11  C   UNL     1      -6.221  -1.775   0.000  0.00  0.00    +0.176 C 
ATOM     14  C   UNL     1      -4.922  -2.525   0.000  0.00  0.00    +0.227 C 
ATOM     15  C   UNL     1      -3.623  -1.775   0.000  0.00  0.00    +0.045 C 
ATOM     16  C   UNL     1      -2.324  -2.525   0.000  0.00  0.00    +0.052 C 
ATOM     17  C   UNL     1      -3.623  -0.275   0.000  0.00  0.00    +0.171 C 
ATOM     20  O   UNL     1      -4.922  -4.024   0.000  0.00  0.00    -0.284 OA
ATOM     21  C   UNL     1      -4.922   0.475   0.000  0.00  0.00    +0.232 C 
ATOM     22  O   UNL     1      -4.922   1.976   0.000  0.00  0.00    -0.283 OA
BRANCH  11  12
ATOM     12  O   UNL     1      -7.520  -2.525   0.000  0.00  0.00    -0.503 OA
ATOM     13  H   UNL     1      -8.331  -2.056   0.000  0.00  0.00    +0.292 HD
ENDBRANCH  11  12
BRANCH  17  18
ATOM     18  O   UNL     1      -2.324   0.475   0.000  0.00  0.00    -0.503 OA
ATOM     19  H   UNL     1      -1.512   0.007   0.000  0.00  0.00    +0.292 HD
ENDBRANCH  17  18
ENDBRANCH   9  10
BRANCH   5   6
ATOM      6  O   UNL     1     -11.417  -0.275   0.000  0.00  0.00    -0.503 OA
ATOM      7  H   UNL     1     -12.228   0.194   0.000  0.00  0.00    +0.292 HD
ENDBRANCH   5   6
BRANCH  24  25
ATOM     25  O   UNL     1      -6.221   2.725   0.000  0.00  0.00    -0.503 OA
ATOM     26  H   UNL     1      -5.409   2.257   0.000  0.00  0.00    +0.292 HD
ENDBRANCH  24  25
TORSDOF 5