REMARK  Name = NSC 76627
REMARK  23 active torsions:
REMARK  status: ('A' for Active; 'I' for Inactive)
REMARK    1  A    between atoms: C_1  and  O_2
REMARK    2  A    between atoms: C_3  and  C_4
REMARK    3  A    between atoms: C_5  and  O_6
REMARK    4  A    between atoms: C_7  and  C_8
REMARK    5  A    between atoms: C_7  and  O_9
REMARK    6  A    between atoms: C_22  and  C_23
REMARK    7  A    between atoms: C_23  and  C_24
REMARK    8  A    between atoms: C_24  and  O_25
REMARK    9  A    between atoms: C_24  and  C_26
REMARK   10  A    between atoms: C_26  and  C_27
REMARK   11  A    between atoms: C_33  and  O_34
REMARK   12  A    between atoms: C_36  and  C_37
REMARK   13  A    between atoms: C_36  and  C_38
REMARK   14  A    between atoms: C_49  and  C_50
REMARK   15  A    between atoms: C_49  and  O_51
REMARK   16  A    between atoms: C_52  and  O_53
REMARK   17  A    between atoms: C_54  and  C_55
REMARK   18  A    between atoms: C_56  and  O_57
REMARK   19  A    between atoms: O_57  and  C_58
REMARK   20  A    between atoms: C_61  and  N_62
REMARK   21  A    between atoms: N_62  and  C_63
REMARK   22  A    between atoms: N_62  and  C_64
REMARK   23  A    between atoms: C_65  and  C_66
REMARK                            x       y       z     vdW  Elec       q    Type
REMARK                         _______ _______ _______ _____ _____    ______ ____
ROOT
ATOM      1  C   UNL     1     -11.418   8.124   0.000  0.00  0.00    +0.151 C 
ATOM      4  C   UNL     1     -10.928   6.706   0.000  0.00  0.00    +0.049 C 
ATOM      5  C   UNL     1     -11.530   5.332   0.000  0.00  0.00    +0.013 C 
ATOM      6  C   UNL     1      -9.554   7.308   0.000  0.00  0.00    +0.155 C 
ATOM      9  C   UNL     1      -8.469   6.272   0.000  0.00  0.00    +0.108 C 
ATOM     10  C   UNL     1      -7.151   5.556   0.000  0.00  0.00    +0.048 C 
ATOM     13  C   UNL     1      -9.005   4.872   0.000  0.00  0.00    +0.016 C 
ATOM     14  C   UNL     1      -7.566   4.449   0.000  0.00  0.00    +0.090 C 
ATOM     15  C   UNL     1      -7.400   2.959   0.000  0.00  0.00    +0.332 C 
ATOM     16  O   UNL     1      -6.067   2.271   0.000  0.00  0.00    -0.246 OA
ATOM     17  O   UNL     1      -8.712   2.231   0.000  0.00  0.00    -0.458 OA
ATOM     18  C   UNL     1      -8.869   0.739   0.000  0.00  0.00    +0.187 C 
ATOM     19  C   UNL     1      -7.724  -0.230   0.000  0.00  0.00    +0.110 C 
ATOM     20  C   UNL     1      -8.217  -1.647   0.000  0.00  0.00    +0.174 C 
ATOM     21  C   UNL     1      -8.818  -3.021   0.000  0.00  0.00    +0.065 C 
ATOM     22  C   UNL     1      -7.929  -4.229   0.000  0.00  0.00    +0.008 C 
ATOM     23  C   UNL     1      -6.439  -4.063   0.000  0.00  0.00    +0.032 C 
ATOM     24  C   UNL     1      -5.837  -2.689   0.000  0.00  0.00    +0.124 C 
ATOM     31  O   UNL     1      -6.726  -1.481   0.000  0.00  0.00    -0.345 OA
ATOM     32  O   UNL     1      -9.716  -1.696   0.000  0.00  0.00    -0.345 OA
ATOM     33  C   UNL     1     -11.264  -1.023   0.000  0.00  0.00    +0.133 C 
ATOM     34  C   UNL     1     -12.734  -0.729   0.000  0.00  0.00    +0.097 C 
ATOM     35  C   UNL     1     -13.820  -1.765   0.000  0.00  0.00    +0.177 C 
ATOM     38  O   UNL     1     -13.967  -3.257   0.000  0.00  0.00    -0.342 OA
ATOM     39  C   UNL     1     -15.433  -3.578   0.000  0.00  0.00    +0.068 C 
ATOM     40  C   UNL     1     -16.799  -4.197   0.000  0.00  0.00    +0.041 C 
ATOM     41  C   UNL     1     -14.961  -5.002   0.000  0.00  0.00    +0.041 C 
ATOM     42  C   UNL     1     -16.191  -2.284   0.000  0.00  0.00    +0.047 C 
ATOM     43  C   UNL     1     -15.194  -1.163   0.000  0.00  0.00    +0.073 C 
ATOM     44  C   UNL     1     -15.169   0.337   0.000  0.00  0.00    -0.022 C 
ATOM     45  C   UNL     1     -16.513  -0.329   0.000  0.00  0.00    -0.031 C 
ATOM     46  C   UNL     1     -17.726   0.553   0.000  0.00  0.00    +0.027 C 
ATOM     47  C   UNL     1     -17.692   2.053   0.000  0.00  0.00    +0.004 C 
ATOM     48  C   UNL     1     -16.348   2.718   0.000  0.00  0.00    +0.000 C 
ATOM     49  C   UNL     1     -16.711   4.174   0.000  0.00  0.00    +0.003 C 
ATOM     50  C   UNL     1     -15.720   5.301   0.000  0.00  0.00    +0.037 C 
ATOM     51  C   UNL     1     -15.063   6.649   0.000  0.00  0.00    +0.092 C 
ATOM     52  C   UNL     1     -14.988   8.147   0.000  0.00  0.00    +0.044 C 
ATOM     55  C   UNL     1     -13.580   6.875   0.000  0.00  0.00    +0.177 C 
ATOM     58  C   UNL     1     -10.184   0.019   0.000  0.00  0.00    +0.056 C 
ATOM     59  C   UNL     1     -11.073   1.227   0.000  0.00  0.00    +0.014 C 
ATOM     60  C   UNL     1     -12.914   8.220   0.000  0.00  0.00    +0.181 C 
ENDROOT
BRANCH   1   2
ATOM      2  O   UNL     1     -10.508   9.317   0.000  0.00  0.00    -0.389 OA
ATOM      3  H   UNL     1      -9.546   9.194   0.000  0.00  0.00    +0.210 HD
ENDBRANCH   1   2
BRANCH   6   7
ATOM      7  O   UNL     1      -9.293   8.785   0.000  0.00  0.00    -0.388 OA
ATOM      8  H   UNL     1      -8.382   9.117   0.000  0.00  0.00    +0.210 HD
ENDBRANCH   6   7
BRANCH   9  11
ATOM     11  O   UNL     1      -7.585   7.484   0.000  0.00  0.00    -0.382 OA
ATOM     12  H   UNL     1      -6.621   7.382   0.000  0.00  0.00    +0.211 HD
ENDBRANCH   9  11
BRANCH  35  36
ATOM     36  O   UNL     1     -12.472  -2.422   0.000  0.00  0.00    -0.364 OA
ATOM     37  H   UNL     1     -12.404  -3.390   0.000  0.00  0.00    +0.213 HD
ENDBRANCH  35  36
BRANCH  51  53
ATOM     53  O   UNL     1     -16.515   7.023   0.000  0.00  0.00    -0.386 OA
ATOM     54  H   UNL     1     -16.776   7.957   0.000  0.00  0.00    +0.210 HD
ENDBRANCH  51  53
BRANCH  55  56
ATOM     56  O   UNL     1     -12.695   5.665   0.000  0.00  0.00    -0.386 OA
ATOM     57  H   UNL     1     -13.087   4.777   0.000  0.00  0.00    +0.210 HD
ENDBRANCH  55  56
BRANCH  24  25
ATOM     25  C   UNL     1      -4.346  -2.524   0.000  0.00  0.00    +0.063 C 
BRANCH  25  26
ATOM     26  C   UNL     1      -3.744  -1.150   0.000  0.00  0.00    +0.117 C 
BRANCH  26  27
ATOM     27  O   UNL     1      -4.633   0.059   0.000  0.00  0.00    -0.392 OA
ATOM     28  H   UNL     1      -4.244   0.947   0.000  0.00  0.00    +0.210 HD
ENDBRANCH  26  27
BRANCH  26  29
ATOM     29  C   UNL     1      -2.253  -0.984   0.000  0.00  0.00    +0.028 C 
ATOM     30  C   UNL     1      -1.652   0.390   0.000  0.00  0.00    +0.006 C 
ENDBRANCH  26  29
ENDBRANCH  25  26
ENDBRANCH  24  25
BRANCH  60  61
ATOM     61  O   UNL     1     -13.664   9.519   0.000  0.00  0.00    -0.343 OA
BRANCH  61  62
ATOM     62  C   UNL     1     -15.164   9.519   0.000  0.00  0.00    +0.251 C 
ATOM     63  C   UNL     1     -15.914   8.220   0.000  0.00  0.00    +0.063 C 
ATOM     64  C   UNL     1     -17.414   8.220   0.000  0.00  0.00    +0.026 C 
ATOM     65  C   UNL     1     -18.164   9.519   0.000  0.00  0.00    +0.085 C 
ATOM     69  C   UNL     1     -17.414  10.818   0.000  0.00  0.00    +0.135 C 
ATOM     70  C   UNL     1     -16.664   9.519   0.000  0.00  0.00    +0.039 C 
ATOM     71  O   UNL     1     -15.914  10.818   0.000  0.00  0.00    -0.347 OA
BRANCH  65  66
ATOM     66  N   UNL     1     -19.664   9.519   0.000  0.00  0.00    -0.303 NA
ATOM     67  C   UNL     1     -20.414   8.220   0.000  0.00  0.00    +0.105 C 
ATOM     68  C   UNL     1     -20.414  10.818   0.000  0.00  0.00    +0.105 C 
ENDBRANCH  65  66
ENDBRANCH  61  62
ENDBRANCH  60  61
TORSDOF 13