REMARK  Name = NSC 785165#1
REMARK  9 active torsions:
REMARK  status: ('A' for Active; 'I' for Inactive)
REMARK    1  A    between atoms: C_1  and  O_2
REMARK    2  A    between atoms: C_3  and  O_34
REMARK    3  A    between atoms: N_8  and  C_9
REMARK    4  A    between atoms: C_15  and  N_16
REMARK    5  A    between atoms: N_16  and  C_17
REMARK    6  A    between atoms: N_16  and  C_24
REMARK    7  A    between atoms: C_17  and  C_18
REMARK    8  A    between atoms: C_24  and  C_25
REMARK    9  A    between atoms: O_34  and  C_35
REMARK                            x       y       z     vdW  Elec       q    Type
REMARK                         _______ _______ _______ _____ _____    ______ ____
ROOT
ATOM      1  C   UNL     1      10.771   7.500   0.000  0.00  0.00    +0.167 A 
ATOM      4  C   UNL     1      12.070   8.250   0.000  0.00  0.00    +0.162 A 
ATOM      5  C   UNL     1      13.369   7.500   0.000  0.00  0.00    +0.053 A 
ATOM      6  C   UNL     1      13.369   6.000   0.000  0.00  0.00    -0.037 A 
ATOM      7  C   UNL     1      14.668   5.250   0.000  0.00  0.00    +0.051 C 
ATOM      8  C   UNL     1      14.668   3.750   0.000  0.00  0.00    +0.089 C 
ATOM      9  N   UNL     1      13.369   3.000   0.000  0.00  0.00    -0.298 NA
ATOM     10  C   UNL     1      13.369   1.500   0.000  0.00  0.00    +0.105 C 
ATOM     11  C   UNL     1      12.070   3.750   0.000  0.00  0.00    +0.092 C 
ATOM     12  C   UNL     1      10.771   3.000   0.000  0.00  0.00    +0.059 C 
ATOM     13  C   UNL     1       9.472   3.750   0.000  0.00  0.00    -0.038 A 
ATOM     14  C   UNL     1       8.173   3.000   0.000  0.00  0.00    +0.006 A 
ATOM     15  C   UNL     1       6.874   3.750   0.000  0.00  0.00    +0.023 A 
ATOM     16  C   UNL     1       6.874   5.250   0.000  0.00  0.00    +0.031 A 
ATOM     32  C   UNL     1       8.173   6.000   0.000  0.00  0.00    +0.032 A 
ATOM     33  C   UNL     1       9.472   5.250   0.000  0.00  0.00    -0.009 A 
ATOM     34  C   UNL     1      12.070   5.250   0.000  0.00  0.00    -0.015 A 
ATOM     37  C   UNL     1      10.771   6.000   0.000  0.00  0.00    +0.032 A 
ENDROOT
BRANCH   1   2
ATOM      2  O   UNL     1       9.472   8.250   0.000  0.00  0.00    -0.503 OA
ATOM      3  H   UNL     1       9.472   9.187   0.000  0.00  0.00    +0.292 HD
ENDBRANCH   1   2
BRANCH   4  35
ATOM     35  O   UNL     1      12.070   9.750   0.000  0.00  0.00    -0.491 OA
ATOM     36  C   UNL     1      13.369  10.500   0.000  0.00  0.00    +0.277 C 
ENDBRANCH   4  35
BRANCH  16  17
ATOM     17  N   UNL     1       5.575   6.000   0.000  0.00  0.00    -0.321 N 
BRANCH  17  18
ATOM     18  C   UNL     1       4.276   5.250   0.000  0.00  0.00    +0.140 C 
BRANCH  18  19
ATOM     19  C   UNL     1       4.276   3.750   0.000  0.00  0.00    -0.030 A 
ATOM     20  C   UNL     1       5.575   3.000   0.000  0.00  0.00    +0.005 A 
ATOM     21  C   UNL     1       5.575   1.500   0.000  0.00  0.00    +0.000 A 
ATOM     22  C   UNL     1       4.276   0.750   0.000  0.00  0.00    +0.000 A 
ATOM     23  C   UNL     1       2.977   1.500   0.000  0.00  0.00    +0.000 A 
ATOM     24  C   UNL     1       2.977   3.000   0.000  0.00  0.00    +0.005 A 
ENDBRANCH  18  19
ENDBRANCH  17  18
BRANCH  17  25
ATOM     25  C   UNL     1       5.575   7.500   0.000  0.00  0.00    +0.140 C 
BRANCH  25  26
ATOM     26  C   UNL     1       4.276   8.250   0.000  0.00  0.00    -0.030 A 
ATOM     27  C   UNL     1       2.977   7.500   0.000  0.00  0.00    +0.005 A 
ATOM     28  C   UNL     1       1.678   8.250   0.000  0.00  0.00    +0.000 A 
ATOM     29  C   UNL     1       1.678   9.750   0.000  0.00  0.00    +0.000 A 
ATOM     30  C   UNL     1       2.977  10.500   0.000  0.00  0.00    +0.000 A 
ATOM     31  C   UNL     1       4.276   9.750   0.000  0.00  0.00    +0.005 A 
ENDBRANCH  25  26
ENDBRANCH  17  25
ENDBRANCH  16  17
TORSDOF 7