REMARK  Name = NSC 145612
REMARK  21 active torsions:
REMARK  status: ('A' for Active; 'I' for Inactive)
REMARK    1  A    between atoms: C_1  and  C_2
REMARK    2  A    between atoms: C_5  and  C_56
REMARK    3  A    between atoms: C_9  and  O_10
REMARK    4  A    between atoms: O_10  and  C_11
REMARK    5  A    between atoms: C_12  and  C_53
REMARK    6  A    between atoms: C_13  and  O_14
REMARK    7  A    between atoms: O_14  and  C_15
REMARK    8  A    between atoms: C_15  and  C_17
REMARK    9  A    between atoms: C_18  and  C_52
REMARK   10  A    between atoms: C_19  and  O_20
REMARK   11  A    between atoms: C_22  and  C_51
REMARK   12  A    between atoms: C_23  and  O_24
REMARK   13  A    between atoms: C_26  and  C_50
REMARK   14  A    between atoms: C_30  and  C_49
REMARK   15  A    between atoms: C_36  and  O_37
REMARK   16  A    between atoms: C_41  and  O_42
REMARK   17  A    between atoms: C_44  and  C_45
REMARK   18  A    between atoms: C_45  and  N_46
REMARK   19  A    between atoms: N_46  and  C_47
REMARK   20  A    between atoms: N_46  and  C_48
REMARK   21  A    between atoms: C_58  and  O_59
REMARK                            x       y       z     vdW  Elec       q    Type
REMARK                         _______ _______ _______ _____ _____    ______ ____
ROOT
ATOM      1  C   UNL     1      -1.015  17.316   0.000  0.00  0.00    +0.051 C 
ATOM      2  C   UNL     1      -2.314  16.566   0.000  0.00  0.00    +0.034 A 
ATOM      3  C   UNL     1      -2.314  15.066   0.000  0.00  0.00    +0.144 A 
ATOM      4  O   UNL     1      -0.928  13.175   0.000  0.00  0.00    -0.444 OA
ATOM      5  C   UNL     1      -1.803  11.957   0.000  0.00  0.00    +0.314 C 
ATOM      6  O   UNL     1      -1.415  10.508   0.000  0.00  0.00    -0.453 OA
ATOM      7  C   UNL     1      -1.415   9.008   0.000  0.00  0.00    +0.190 C 
ATOM      8  C   UNL     1      -1.803   7.559   0.000  0.00  0.00    +0.042 C 
ATOM      9  C   UNL     1      -2.553   6.260   0.000  0.00  0.00    +0.150 C 
ATOM     12  C   UNL     1      -3.614   5.199   0.000  0.00  0.00    +0.060 C 
ATOM     13  C   UNL     1      -4.913   4.449   0.000  0.00  0.00    +0.187 C 
ATOM     18  C   UNL     1      -6.362   4.061   0.000  0.00  0.00    +0.056 C 
ATOM     19  C   UNL     1      -7.862   4.061   0.000  0.00  0.00    +0.126 C 
ATOM     22  C   UNL     1      -9.310   4.449   0.000  0.00  0.00    +0.044 C 
ATOM     23  C   UNL     1     -10.609   5.199   0.000  0.00  0.00    +0.126 C 
ATOM     26  C   UNL     1     -11.670   6.260   0.000  0.00  0.00    +0.037 C 
ATOM     27  C   UNL     1     -12.420   7.559   0.000  0.00  0.00    -0.021 C 
ATOM     28  C   UNL     1     -12.808   9.008   0.000  0.00  0.00    -0.003 C 
ATOM     29  C   UNL     1     -12.808  10.508   0.000  0.00  0.00    +0.008 C 
ATOM     30  C   UNL     1     -12.420  11.957   0.000  0.00  0.00    +0.012 C 
ATOM     31  C   UNL     1     -11.670  13.256   0.000  0.00  0.00    +0.244 C 
ATOM     32  O   UNL     1     -12.860  14.169   0.000  0.00  0.00    -0.270 OA
ATOM     33  N   UNL     1     -10.609  14.316   0.000  0.00  0.00    -0.278 N 
ATOM     34  H   UNL     1     -11.523  15.506   0.000  0.00  0.00    +0.155 HD
ATOM     35  C   UNL     1      -9.310  15.066   0.000  0.00  0.00    +0.084 A 
ATOM     36  C   UNL     1      -8.708  16.440   0.000  0.00  0.00    +0.150 A 
ATOM     39  C   UNL     1      -4.912  16.566   0.000  0.00  0.00    +0.071 A 
ATOM     40  C   UNL     1      -4.912  15.066   0.000  0.00  0.00    +0.045 A 
ATOM     41  C   UNL     1      -6.361  15.454   0.000  0.00  0.00    +0.132 A 
ATOM     44  C   UNL     1      -7.861  15.454   0.000  0.00  0.00    +0.033 A 
ATOM     49  C   UNL     1     -13.806  12.531   0.000  0.00  0.00    +0.049 C 
ATOM     50  C   UNL     1     -12.860   5.347   0.000  0.00  0.00    +0.014 C 
ATOM     51  C   UNL     1      -9.884   3.063   0.000  0.00  0.00    +0.013 C 
ATOM     52  C   UNL     1      -6.166   2.574   0.000  0.00  0.00    +0.014 C 
ATOM     53  C   UNL     1      -2.700   4.009   0.000  0.00  0.00    +0.014 C 
ATOM     54  C   UNL     1      -2.553  13.256   0.000  0.00  0.00    +0.250 C 
ATOM     55  O   UNL     1      -1.363  14.169   0.000  0.00  0.00    -0.284 OA
ATOM     56  C   UNL     1      -0.327  11.688   0.000  0.00  0.00    +0.114 C 
ATOM     57  C   UNL     1      -3.614  14.316   0.000  0.00  0.00    +0.079 A 
ATOM     58  C   UNL     1      -3.614  17.316   0.000  0.00  0.00    +0.135 A 
ENDROOT
BRANCH   9  10
ATOM     10  O   UNL     1      -1.363   5.347   0.000  0.00  0.00    -0.375 OA
ATOM     11  C   UNL     1       0.023   5.921   0.000  0.00  0.00    +0.194 C 
ENDBRANCH   9  10
BRANCH  19  20
ATOM     20  O   UNL     1      -8.057   2.574   0.000  0.00  0.00    -0.391 OA
ATOM     21  H   UNL     1      -9.443   2.000   0.000  0.00  0.00    +0.210 HD
ENDBRANCH  19  20
BRANCH  23  24
ATOM     24  O   UNL     1     -11.523   4.009   0.000  0.00  0.00    -0.391 OA
ATOM     25  H   UNL     1     -10.948   2.623   0.000  0.00  0.00    +0.210 HD
ENDBRANCH  23  24
BRANCH  36  37
ATOM     37  O   UNL     1      -9.550  17.682   0.000  0.00  0.00    -0.504 OA
ATOM     38  H   UNL     1     -11.046  17.574   0.000  0.00  0.00    +0.292 HD
ENDBRANCH  36  37
BRANCH  41  42
ATOM     42  O   UNL     1      -6.450  17.478   0.000  0.00  0.00    -0.506 OA
ATOM     43  H   UNL     1      -5.185  18.284   0.000  0.00  0.00    +0.292 HD
ENDBRANCH  41  42
BRANCH  58  59
ATOM     59  O   UNL     1      -3.614  18.816   0.000  0.00  0.00    -0.506 OA
ATOM     60  H   UNL     1      -2.314  19.566   0.000  0.00  0.00    +0.292 HD
ENDBRANCH  58  59
BRANCH  13  14
ATOM     14  O   UNL     1      -4.588   2.985   0.000  0.00  0.00    -0.461 OA
BRANCH  14  15
ATOM     15  C   UNL     1      -3.157   2.534   0.000  0.00  0.00    +0.304 C 
ATOM     16  O   UNL     1      -2.833   1.069   0.000  0.00  0.00    -0.251 OA
ATOM     17  C   UNL     1      -2.051   3.547   0.000  0.00  0.00    +0.136 C 
ENDBRANCH  14  15
ENDBRANCH  13  14
BRANCH  44  45
ATOM     45  C   UNL     1      -7.753  17.927   0.000  0.00  0.00    +0.124 C 
BRANCH  45  46
ATOM     46  N   UNL     1      -5.957  18.862   0.000  0.00  0.00    -0.304 NA
ATOM     47  C   UNL     1      -5.892  20.361   0.000  0.00  0.00    +0.104 C 
ATOM     48  C   UNL     1      -4.692  18.056   0.000  0.00  0.00    +0.104 C 
ENDBRANCH  45  46
ENDBRANCH  44  45
TORSDOF 10