REMARK  Name = NSC 337783
REMARK  9 active torsions:
REMARK  status: ('A' for Active; 'I' for Inactive)
REMARK    1  A    between atoms: C_1  and  C_2
REMARK    2  A    between atoms: C_1  and  C_6
REMARK    3  A    between atoms: C_2  and  O_3
REMARK    4  A    between atoms: O_3  and  C_4
REMARK    5  A    between atoms: C_10  and  O_11
REMARK    6  A    between atoms: C_13  and  C_14
REMARK    7  A    between atoms: C_14  and  C_15
REMARK    8  A    between atoms: C_14  and  C_16
REMARK    9  A    between atoms: C_23  and  C_24
REMARK                            x       y       z     vdW  Elec       q    Type
REMARK                         _______ _______ _______ _____ _____    ______ ____
ROOT
ATOM      1  C   UNL     1      -3.002   4.898   0.000  0.00  0.00    +0.069 C 
ATOM      6  C   UNL     1      -3.967   3.749   0.000  0.00  0.00    +0.023 C 
ATOM      7  C   UNL     1      -1.703   5.648   0.000  0.00  0.00    +0.016 C 
ATOM      8  C   UNL     1      -0.404   4.898   0.000  0.00  0.00    +0.008 C 
ATOM      9  C   UNL     1       0.895   5.648   0.000  0.00  0.00    +0.042 C 
ATOM     10  C   UNL     1       0.895   7.148   0.000  0.00  0.00    +0.117 C 
ATOM     13  C   UNL     1       2.194   7.898   0.000  0.00  0.00    +0.195 C 
ATOM     14  C   UNL     1       2.194   9.398   0.000  0.00  0.00    +0.163 C 
ATOM     18  C   UNL     1       0.895  10.148   0.000  0.00  0.00    +0.191 C 
ATOM     19  C   UNL     1      -0.404   9.398   0.000  0.00  0.00    +0.052 C 
ATOM     20  O   UNL     1       0.895  11.648   0.000  0.00  0.00    -0.289 OA
ATOM     21  O   UNL     1       3.493   8.648   0.000  0.00  0.00    -0.353 OA
ATOM     22  C   UNL     1      -0.404   7.898   0.000  0.00  0.00    -0.026 C 
ATOM     23  C   UNL     1      -1.703   7.148   0.000  0.00  0.00    -0.004 C 
ATOM     24  C   UNL     1      -1.703   8.648   0.000  0.00  0.00    +0.016 C 
ATOM     25  C   UNL     1      -3.002   7.898   0.000  0.00  0.00    +0.011 C 
ATOM     26  C   UNL     1      -4.301   7.148   0.000  0.00  0.00    +0.002 C 
ATOM     27  C   UNL     1      -4.301   5.648   0.000  0.00  0.00    +0.018 C 
ENDROOT
BRANCH  14  15
ATOM     15  C   UNL     1       2.944  10.697   0.000  0.00  0.00    +0.025 C 
ATOM     16  C   UNL     1       4.444  10.697   0.000  0.00  0.00    +0.010 C 
ATOM     17  C   UNL     1       2.194  11.996   0.000  0.00  0.00    +0.010 C 
ENDBRANCH  14  15
BRANCH   1   2
ATOM      2  C   UNL     1      -2.489   3.488   0.000  0.00  0.00    +0.313 C 
ATOM      5  O   UNL     1      -1.012   3.228   0.000  0.00  0.00    -0.250 OA
BRANCH   2   3
ATOM      3  O   UNL     1      -3.454   2.339   0.000  0.00  0.00    -0.468 OA
ATOM      4  C   UNL     1      -4.931   2.599   0.000  0.00  0.00    +0.280 C 
ENDBRANCH   2   3
ENDBRANCH   1   2
BRANCH  10  11
ATOM     11  O   UNL     1       2.194   6.398   0.000  0.00  0.00    -0.382 OA
ATOM     12  H   UNL     1       2.194   5.428   0.000  0.00  0.00    +0.211 HD
ENDBRANCH  10  11
TORSDOF 4