REMARK  Name = NSC 112906
REMARK  2 active torsions:
REMARK  status: ('A' for Active; 'I' for Inactive)
REMARK    1  A    between atoms: C_2  and  O_3
REMARK    2  A    between atoms: C_8  and  C_9
REMARK                            x       y       z     vdW  Elec       q    Type
REMARK                         _______ _______ _______ _____ _____    ______ ____
ROOT
ATOM      1  C   UNL     1       1.674   1.400   0.000  0.00  0.00    +0.074 C 
ATOM      2  C   UNL     1       2.973   2.150   0.000  0.00  0.00    +0.104 C 
ATOM      5  C   UNL     1       4.272   1.400   0.000  0.00  0.00    +0.077 C 
ATOM      6  C   UNL     1       5.571   2.150   0.000  0.00  0.00    +0.339 C 
ATOM      7  O   UNL     1       5.571   3.650   0.000  0.00  0.00    -0.245 OA
ATOM      8  O   UNL     1       6.870   1.400   0.000  0.00  0.00    -0.458 OA
ATOM      9  C   UNL     1       6.870  -0.101   0.000  0.00  0.00    +0.174 C 
ATOM     10  C   UNL     1       8.169  -0.851   0.000  0.00  0.00    +0.052 C 
ATOM     11  C   UNL     1       5.571  -0.851   0.000  0.00  0.00    +0.053 C 
ATOM     12  C   UNL     1       4.272  -0.101   0.000  0.00  0.00    +0.033 C 
ATOM     13  C   UNL     1       2.973  -0.851   0.000  0.00  0.00    +0.009 C 
ATOM     14  C   UNL     1       1.674  -0.101   0.000  0.00  0.00    +0.008 C 
ENDROOT
BRANCH   2   3
ATOM      3  O   UNL     1       2.973   3.650   0.000  0.00  0.00    -0.511 OA
ATOM      4  H   UNL     1       3.785   4.118   0.000  0.00  0.00    +0.292 HD
ENDBRANCH   2   3
TORSDOF 1