REMARK  Name = NSC 33410
REMARK  10 active torsions:
REMARK  status: ('A' for Active; 'I' for Inactive)
REMARK    1  A    between atoms: C_5  and  N_6
REMARK    2  A    between atoms: C_7  and  C_8
REMARK    3  A    between atoms: C_19  and  O_20
REMARK    4  A    between atoms: O_20  and  C_21
REMARK    5  A    between atoms: C_22  and  O_23
REMARK    6  A    between atoms: O_23  and  C_24
REMARK    7  A    between atoms: C_25  and  O_26
REMARK    8  A    between atoms: O_26  and  C_27
REMARK    9  A    between atoms: C_32  and  O_33
REMARK   10  A    between atoms: O_33  and  C_34
REMARK                            x       y       z     vdW  Elec       q    Type
REMARK                         _______ _______ _______ _____ _____    ______ ____
ROOT
ATOM      1  O   UNL     1       3.517  -9.806   0.000  0.00  0.00    -0.284 OA
ATOM      2  C   UNL     1       4.168  -8.455   0.000  0.00  0.00    +0.221 A 
ATOM      3  C   UNL     1       5.668  -8.455   0.000  0.00  0.00    +0.060 A 
ATOM      4  C   UNL     1       6.603  -7.282   0.000  0.00  0.00    -0.016 A 
ATOM      5  C   UNL     1       7.955  -7.933   0.000  0.00  0.00    +0.104 C 
ATOM     16  C   UNL     1       9.306  -7.282   0.000  0.00  0.00    +0.032 C 
ATOM     17  C   UNL     1       9.640  -5.820   0.000  0.00  0.00    +0.038 C 
ATOM     18  C   UNL     1       8.705  -4.647   0.000  0.00  0.00    -0.032 A 
ATOM     19  C   UNL     1       7.205  -4.647   0.000  0.00  0.00    +0.031 A 
ATOM     20  C   UNL     1       6.455  -3.348   0.000  0.00  0.00    +0.173 A 
ATOM     23  C   UNL     1       7.205  -2.049   0.000  0.00  0.00    +0.204 A 
ATOM     26  C   UNL     1       8.705  -2.049   0.000  0.00  0.00    +0.165 A 
ATOM     29  C   UNL     1       9.455  -3.348   0.000  0.00  0.00    +0.054 A 
ATOM     30  C   UNL     1       6.269  -5.820   0.000  0.00  0.00    -0.009 A 
ATOM     31  C   UNL     1       4.918  -5.169   0.000  0.00  0.00    +0.012 A 
ATOM     32  C   UNL     1       3.566  -5.820   0.000  0.00  0.00    +0.050 A 
ATOM     33  C   UNL     1       3.233  -7.282   0.000  0.00  0.00    +0.167 A 
ENDROOT
BRANCH   5   6
ATOM      6  N   UNL     1       7.955  -9.433   0.000  0.00  0.00    -0.304 N 
ATOM      7  H   UNL     1       8.807  -9.925   0.000  0.00  0.00    +0.150 HD
ATOM      8  C   UNL     1       6.656 -10.183   0.000  0.00  0.00    +0.245 C 
ATOM     15  O   UNL     1       5.356  -9.433   0.000  0.00  0.00    -0.270 OA
BRANCH   8   9
ATOM      9  C   UNL     1       6.656 -11.683   0.000  0.00  0.00    +0.037 A 
ATOM     10  C   UNL     1       5.356 -12.433   0.000  0.00  0.00    +0.013 A 
ATOM     11  C   UNL     1       5.356 -13.933   0.000  0.00  0.00    +0.001 A 
ATOM     12  C   UNL     1       6.656 -14.683   0.000  0.00  0.00    +0.000 A 
ATOM     13  C   UNL     1       7.955 -13.933   0.000  0.00  0.00    +0.001 A 
ATOM     14  C   UNL     1       7.955 -12.433   0.000  0.00  0.00    +0.013 A 
ENDBRANCH   8   9
ENDBRANCH   5   6
BRANCH  20  21
ATOM     21  O   UNL     1       4.955  -3.348   0.000  0.00  0.00    -0.491 OA
ATOM     22  C   UNL     1       4.205  -4.647   0.000  0.00  0.00    +0.277 C 
ENDBRANCH  20  21
BRANCH  23  24
ATOM     24  O   UNL     1       6.455  -0.750   0.000  0.00  0.00    -0.488 OA
ATOM     25  C   UNL     1       4.955  -0.750   0.000  0.00  0.00    +0.277 C 
ENDBRANCH  23  24
BRANCH  26  27
ATOM     27  O   UNL     1       9.455  -0.750   0.000  0.00  0.00    -0.491 OA
ATOM     28  C   UNL     1      10.955  -0.750   0.000  0.00  0.00    +0.277 C 
ENDBRANCH  26  27
BRANCH  33  34
ATOM     34  O   UNL     1       1.770  -7.616   0.000  0.00  0.00    -0.491 OA
ATOM     35  C   UNL     1       0.750  -6.516   0.000  0.00  0.00    +0.277 C 
ENDBRANCH  33  34
TORSDOF 6