REMARK  Name = NSC 90636#1
REMARK  18 active torsions:
REMARK  status: ('A' for Active; 'I' for Inactive)
REMARK    1  A    between atoms: C_14  and  C_15
REMARK    2  A    between atoms: C_15  and  C_16
REMARK    3  A    between atoms: C_20  and  C_21
REMARK    4  A    between atoms: C_20  and  C_25
REMARK    5  A    between atoms: C_21  and  O_23
REMARK    6  A    between atoms: O_23  and  C_24
REMARK    7  A    between atoms: C_26  and  O_27
REMARK    8  A    between atoms: O_27  and  C_28
REMARK    9  A    between atoms: C_34  and  C_35
REMARK   10  A    between atoms: C_34  and  O_39
REMARK   11  A    between atoms: C_35  and  O_36
REMARK   12  A    between atoms: O_36  and  C_37
REMARK   13  A    between atoms: C_40  and  O_41
REMARK   14  A    between atoms: O_41  and  C_42
REMARK   15  A    between atoms: C_42  and  C_43
REMARK   16  A    between atoms: C_45  and  C_46
REMARK   17  A    between atoms: C_46  and  C_47
REMARK   18  A    between atoms: N_57  and  C_58
REMARK                            x       y       z     vdW  Elec       q    Type
REMARK                         _______ _______ _______ _____ _____    ______ ____
ROOT
ATOM     25  C   UNL     1       9.437  -1.739   0.000  0.00  0.00    +0.017 A 
ATOM     26  C   UNL     1       8.555  -2.952   0.000  0.00  0.00    +0.126 A 
ATOM     29  C   UNL     1       9.165  -4.323   0.000  0.00  0.00    +0.069 A 
ATOM     30  C   UNL     1      10.657  -4.479   0.000  0.00  0.00    +0.037 A 
ATOM     31  C   UNL     1      11.539  -3.266   0.000  0.00  0.00    -0.016 A 
ATOM     32  C   UNL     1      12.965  -3.729   0.000  0.00  0.00    +0.037 C 
ATOM     33  C   UNL     1      12.965  -5.229   0.000  0.00  0.00    +0.132 C 
ATOM     34  C   UNL     1      14.264  -5.979   0.000  0.00  0.00    +0.219 C 
ATOM     41  C   UNL     1      15.563  -5.229   0.000  0.00  0.00    +0.232 C 
ATOM     46  C   UNL     1      15.563  -3.729   0.000  0.00  0.00    +0.045 C 
ATOM     49  C   UNL     1      16.862  -2.979   0.000  0.00  0.00    -0.018 C 
ATOM     50  C   UNL     1      16.862  -1.479   0.000  0.00  0.00    -0.015 C 
ATOM     51  C   UNL     1      15.563  -0.729   0.000  0.00  0.00    +0.111 C 
ATOM     52  N   UNL     1      14.264  -1.479   0.000  0.00  0.00    -0.294 NA
ATOM     53  C   UNL     1      12.655  -1.370   0.000  0.00  0.00    +0.086 C 
ATOM     54  C   UNL     1      11.905  -2.669   0.000  0.00  0.00    +0.030 C 
ATOM     55  C   UNL     1      14.264  -2.979   0.000  0.00  0.00    +0.083 C 
ATOM     56  N   UNL     1      11.539  -5.693   0.000  0.00  0.00    -0.325 N 
ATOM     57  C   UNL     1      11.075  -7.120   0.000  0.00  0.00    +0.129 C 
ATOM     58  C   UNL     1      10.929  -1.896   0.000  0.00  0.00    +0.014 A 
ENDROOT
BRANCH  25  20
ATOM      1  N   UNL     1       9.262   3.334   0.000  0.00  0.00    -0.357 N 
ATOM      2  H   UNL     1      10.748   3.125   0.000  0.00  0.00    +0.166 HD
ATOM      3  C   UNL     1       8.558   4.659   0.000  0.00  0.00    +0.047 A 
ATOM      4  C   UNL     1       9.071   6.068   0.000  0.00  0.00    +0.026 A 
ATOM      5  C   UNL     1       8.107   7.217   0.000  0.00  0.00    +0.002 A 
ATOM      6  C   UNL     1       6.630   6.957   0.000  0.00  0.00    +0.001 A 
ATOM      7  C   UNL     1       6.117   5.547   0.000  0.00  0.00    +0.010 A 
ATOM      8  C   UNL     1       7.081   4.398   0.000  0.00  0.00    +0.003 A 
ATOM      9  C   UNL     1       6.872   2.913   0.000  0.00  0.00    -0.016 A 
ATOM     10  C   UNL     1       6.458   4.354   0.000  0.00  0.00    +0.053 C 
ATOM     11  C   UNL     1       4.959   4.407   0.000  0.00  0.00    +0.089 C 
ATOM     12  N   UNL     1       4.280   2.731   0.000  0.00  0.00    -0.299 NA
ATOM     13  C   UNL     1       3.037   1.893   0.000  0.00  0.00    +0.122 C 
ATOM     14  C   UNL     1       3.141   0.396   0.000  0.00  0.00    +0.109 C 
ATOM     17  C   UNL     1       4.489  -0.261   0.000  0.00  0.00    +0.157 C 
ATOM     18  C   UNL     1       5.733   0.577   0.000  0.00  0.00    +0.036 C 
ATOM     19  C   UNL     1       7.081  -0.080   0.000  0.00  0.00    +0.036 C 
ATOM     20  C   UNL     1       8.325   0.759   0.000  0.00  0.00    +0.136 C 
ATOM     59  O   UNL     1       3.246  -1.100   0.000  0.00  0.00    -0.363 OA
ATOM     60  C   UNL     1       5.628   2.074   0.000  0.00  0.00    +0.090 C 
ATOM     61  C   UNL     1       8.220   2.255   0.000  0.00  0.00    +0.042 A 
BRANCH  14  15
ATOM     15  C   UNL     1       1.645   0.292   0.000  0.00  0.00    +0.035 C 
ATOM     16  C   UNL     1       0.987  -1.057   0.000  0.00  0.00    +0.007 C 
ENDBRANCH  14  15
BRANCH  20  21
ATOM     21  C   UNL     1       9.780   1.122   0.000  0.00  0.00    +0.323 C 
ATOM     22  O   UNL     1      10.822   0.043   0.000  0.00  0.00    -0.249 OA
BRANCH  21  23
ATOM     23  O   UNL     1      10.194   2.563   0.000  0.00  0.00    -0.467 OA
ATOM     24  C   UNL     1      11.649   2.926   0.000  0.00  0.00    +0.280 C 
ENDBRANCH  21  23
ENDBRANCH  20  21
ENDBRANCH  25  20
BRANCH  26  27
ATOM     27  O   UNL     1       7.063  -2.796   0.000  0.00  0.00    -0.495 OA
ATOM     28  C   UNL     1       6.182  -4.009   0.000  0.00  0.00    +0.277 C 
ENDBRANCH  26  27
BRANCH  34  35
ATOM     35  C   UNL     1      15.229  -7.128   0.000  0.00  0.00    +0.345 C 
ATOM     38  O   UNL     1      16.706  -6.868   0.000  0.00  0.00    -0.247 OA
BRANCH  35  36
ATOM     36  O   UNL     1      14.715  -8.538   0.000  0.00  0.00    -0.466 OA
ATOM     37  C   UNL     1      15.680  -9.687   0.000  0.00  0.00    +0.280 C 
ENDBRANCH  35  36
ENDBRANCH  34  35
BRANCH  34  39
ATOM     39  O   UNL     1      13.300  -7.128   0.000  0.00  0.00    -0.373 OA
ATOM     40  H   UNL     1      12.345  -6.960   0.000  0.00  0.00    +0.211 HD
ENDBRANCH  34  39
BRANCH  46  47
ATOM     47  C   UNL     1      16.862  -4.479   0.000  0.00  0.00    +0.013 C 
ATOM     48  C   UNL     1      18.161  -3.729   0.000  0.00  0.00    +0.005 C 
ENDBRANCH  46  47
BRANCH  41  42
ATOM     42  O   UNL     1      16.862  -5.979   0.000  0.00  0.00    -0.457 OA
BRANCH  42  43
ATOM     43  C   UNL     1      19.230  -4.612   0.000  0.00  0.00    +0.304 C 
ATOM     44  C   UNL     1      20.529  -5.362   0.000  0.00  0.00    +0.136 C 
ATOM     45  O   UNL     1      19.230  -3.112   0.000  0.00  0.00    -0.251 OA
ENDBRANCH  42  43
ENDBRANCH  41  42
TORSDOF 11