REMARK  Name = NSC 11866
REMARK  5 active torsions:
REMARK  status: ('A' for Active; 'I' for Inactive)
REMARK    1  A    between atoms: C_2  and  C_3
REMARK    2  A    between atoms: C_4  and  C_5
REMARK    3  A    between atoms: C_5  and  C_6
REMARK    4  A    between atoms: C_15  and  O_16
REMARK    5  A    between atoms: O_16  and  C_17
REMARK                            x       y       z     vdW  Elec       q    Type
REMARK                         _______ _______ _______ _____ _____    ______ ____
ROOT
ATOM      3  C   UNL     1       4.774   3.623   0.000  0.00  0.00    +0.012 C 
ATOM      4  C   UNL     1       5.524   4.922   0.000  0.00  0.00    +0.052 C 
ENDROOT
BRANCH   3   2
ATOM      1  C   UNL     1       4.774   1.025   0.000  0.00  0.00    +0.011 A 
ATOM      2  C   UNL     1       5.524   2.324   0.000  0.00  0.00    -0.025 A 
ATOM     13  C   UNL     1       7.024   2.324   0.000  0.00  0.00    +0.011 A 
ATOM     14  C   UNL     1       7.774   1.025   0.000  0.00  0.00    +0.046 A 
ATOM     15  C   UNL     1       7.024  -0.275   0.000  0.00  0.00    +0.120 A 
ATOM     18  C   UNL     1       5.524  -0.275   0.000  0.00  0.00    +0.046 A 
BRANCH  15  16
ATOM     16  O   UNL     1       7.774  -1.574   0.000  0.00  0.00    -0.495 OA
ATOM     17  C   UNL     1       7.024  -2.873   0.000  0.00  0.00    +0.277 C 
ENDBRANCH  15  16
ENDBRANCH   3   2
BRANCH   4   5
ATOM      5  C   UNL     1       4.774   6.221   0.000  0.00  0.00    +0.186 C 
ATOM     12  O   UNL     1       3.275   6.221   0.000  0.00  0.00    -0.287 OA
BRANCH   5   6
ATOM      6  C   UNL     1       5.524   7.520   0.000  0.00  0.00    +0.022 A 
ATOM      7  C   UNL     1       7.024   7.520   0.000  0.00  0.00    +0.012 A 
ATOM      8  C   UNL     1       7.774   8.819   0.000  0.00  0.00    +0.001 A 
ATOM      9  C   UNL     1       7.024  10.118   0.000  0.00  0.00    +0.000 A 
ATOM     10  C   UNL     1       5.524  10.118   0.000  0.00  0.00    +0.001 A 
ATOM     11  C   UNL     1       4.774   8.819   0.000  0.00  0.00    +0.012 A 
ENDBRANCH   5   6
ENDBRANCH   4   5
TORSDOF 4