REMARK  Name = NSC 26326
REMARK  2 active torsions:
REMARK  status: ('A' for Active; 'I' for Inactive)
REMARK    1  A    between atoms: C_9  and  C_10
REMARK    2  A    between atoms: C_9  and  C_11
REMARK                            x       y       z     vdW  Elec       q    Type
REMARK                         _______ _______ _______ _____ _____    ______ ____
ROOT
ATOM      1  C   UNL     1       5.912   0.260   0.000  0.00  0.00    +0.233 C 
ATOM      2  C   UNL     1       4.613  -0.490   0.000  0.00  0.00    +0.036 A 
ATOM      3  C   UNL     1       4.613  -1.990   0.000  0.00  0.00    +0.028 A 
ATOM      4  C   UNL     1       3.314  -2.740   0.000  0.00  0.00    +0.012 A 
ATOM      5  C   UNL     1       2.015  -1.990   0.000  0.00  0.00    +0.001 A 
ATOM      6  C   UNL     1       2.015  -0.490   0.000  0.00  0.00    +0.001 A 
ATOM      7  C   UNL     1       5.912  -2.740   0.000  0.00  0.00    +0.136 C 
ATOM      8  O   UNL     1       5.912  -4.240   0.000  0.00  0.00    -0.485 OA
ATOM      9  C   UNL     1       7.211  -4.990   0.000  0.00  0.00    +0.105 C 
ATOM     10  C   UNL     1       8.510  -5.740   0.000  0.00  0.00    +0.055 C 
ATOM     11  C   UNL     1       6.461  -6.289   0.000  0.00  0.00    +0.055 C 
ATOM     12  C   UNL     1       8.510  -4.240   0.000  0.00  0.00    +0.052 C 
ATOM     13  C   UNL     1       8.510  -2.740   0.000  0.00  0.00    +0.047 C 
ATOM     14  C   UNL     1       7.211  -1.990   0.000  0.00  0.00    +0.045 C 
ATOM     15  C   UNL     1       3.314   0.260   0.000  0.00  0.00    +0.012 A 
ATOM     16  C   UNL     1       7.211  -0.490   0.000  0.00  0.00    +0.232 C 
ATOM     17  O   UNL     1       8.510   0.260   0.000  0.00  0.00    -0.283 OA
ATOM     18  O   UNL     1       5.912   1.760   0.000  0.00  0.00    -0.283 OA
ENDROOT
TORSDOF 0