REMARK  Name = NSC 328426
REMARK  21 active torsions:
REMARK  status: ('A' for Active; 'I' for Inactive)
REMARK    1  A    between atoms: C_2  and  C_3
REMARK    2  A    between atoms: C_9  and  C_11
REMARK    3  A    between atoms: C_11  and  O_12
REMARK    4  A    between atoms: O_12  and  C_13
REMARK    5  A    between atoms: C_19  and  C_20
REMARK    6  A    between atoms: C_20  and  O_21
REMARK    7  A    between atoms: O_21  and  C_22
REMARK    8  A    between atoms: C_24  and  C_25
REMARK    9  A    between atoms: C_26  and  O_27
REMARK   10  A    between atoms: C_28  and  O_29
REMARK   11  A    between atoms: O_29  and  C_30
REMARK   12  A    between atoms: C_30  and  C_31
REMARK   13  A    between atoms: C_33  and  O_34
REMARK   14  A    between atoms: O_34  and  C_35
REMARK   15  A    between atoms: C_36  and  O_37
REMARK   16  A    between atoms: C_38  and  O_39
REMARK   17  A    between atoms: O_39  and  C_40
REMARK   18  A    between atoms: C_40  and  C_41
REMARK   19  A    between atoms: C_43  and  O_44
REMARK   20  A    between atoms: C_45  and  C_46
REMARK   21  A    between atoms: C_57  and  C_58
REMARK                            x       y       z     vdW  Elec       q    Type
REMARK                         _______ _______ _______ _____ _____    ______ ____
ROOT
ATOM     18  C   UNL     1      11.250 -16.705   0.000  0.00  0.00    +0.313 C 
ATOM     49  O   UNL     1      12.000 -18.004   0.000  0.00  0.00    -0.250 OA
ENDROOT
BRANCH  18  17
ATOM     11  C   UNL     1      11.451  -8.250   0.000  0.00  0.00    +0.187 C 
ATOM     12  C   UNL     1      11.451  -9.750   0.000  0.00  0.00    +0.113 C 
ATOM     13  C   UNL     1      12.750 -10.500   0.000  0.00  0.00    +0.205 C 
ATOM     14  O   UNL     1      11.537 -11.382   0.000  0.00  0.00    -0.342 OA
ATOM     15  C   UNL     1      12.000 -12.808   0.000  0.00  0.00    +0.129 C 
ATOM     16  C   UNL     1      11.250 -14.107   0.000  0.00  0.00    +0.046 C 
ATOM     17  C   UNL     1      12.000 -15.406   0.000  0.00  0.00    +0.100 C 
ATOM     50  C   UNL     1      13.500 -15.406   0.000  0.00  0.00    +0.015 C 
ATOM     51  C   UNL     1      14.250 -14.107   0.000  0.00  0.00    +0.010 C 
ATOM     52  C   UNL     1      13.500 -12.808   0.000  0.00  0.00    +0.057 C 
ATOM     53  C   UNL     1      13.964 -11.382   0.000  0.00  0.00    +0.151 C 
ATOM     54  O   UNL     1      15.431 -11.694   0.000  0.00  0.00    -0.362 OA
ATOM     55  C   UNL     1      14.967 -10.267   0.000  0.00  0.00    +0.201 C 
ATOM     56  O   UNL     1      14.049  -9.750   0.000  0.00  0.00    -0.346 OA
ATOM     57  C   UNL     1      14.049  -8.250   0.000  0.00  0.00    +0.170 C 
ATOM     58  C   UNL     1      12.750  -7.500   0.000  0.00  0.00    +0.053 C 
ATOM     59  C   UNL     1      12.750  -6.000   0.000  0.00  0.00    +0.013 C 
BRANCH  11  10
ATOM     10  O   UNL     1      10.152  -7.500   0.000  0.00  0.00    -0.458 OA
BRANCH  10   9
ATOM      9  C   UNL     1      10.152  -6.000   0.000  0.00  0.00    +0.332 C 
ATOM     60  O   UNL     1      11.451  -5.250   0.000  0.00  0.00    -0.246 OA
BRANCH   9   8
ATOM      1  C   UNL     1       8.853  -3.750   0.000  0.00  0.00    +0.015 C 
ATOM      8  C   UNL     1       8.853  -5.250   0.000  0.00  0.00    +0.092 C 
BRANCH   1   2
ATOM      2  C   UNL     1       7.554  -3.000   0.000  0.00  0.00    -0.025 A 
ATOM      3  C   UNL     1       7.554  -1.500   0.000  0.00  0.00    +0.008 A 
ATOM      4  C   UNL     1       6.255  -0.750   0.000  0.00  0.00    +0.001 A 
ATOM      5  C   UNL     1       4.956  -1.500   0.000  0.00  0.00    +0.000 A 
ATOM      6  C   UNL     1       4.956  -3.000   0.000  0.00  0.00    +0.001 A 
ATOM      7  C   UNL     1       6.255  -3.750   0.000  0.00  0.00    +0.008 A 
ENDBRANCH   1   2
ENDBRANCH   9   8
ENDBRANCH  10   9
ENDBRANCH  11  10
ENDBRANCH  18  17
BRANCH  18  19
ATOM     19  O   UNL     1       9.750 -16.705   0.000  0.00  0.00    -0.432 OA
BRANCH  19  20
ATOM     20  C   UNL     1       9.000 -15.406   0.000  0.00  0.00    +0.344 C 
ATOM     21  O   UNL     1       9.750 -14.107   0.000  0.00  0.00    -0.334 OA
ATOM     22  C   UNL     1       9.000 -12.808   0.000  0.00  0.00    +0.152 C 
ATOM     23  C   UNL     1       9.750 -11.509   0.000  0.00  0.00    +0.041 C 
ATOM     24  C   UNL     1       7.500 -12.808   0.000  0.00  0.00    +0.186 C 
ATOM     27  C   UNL     1       6.750 -14.107   0.000  0.00  0.00    +0.242 C 
ATOM     32  C   UNL     1       7.500 -15.406   0.000  0.00  0.00    +0.233 C 
BRANCH  24  25
ATOM     25  O   UNL     1       6.750 -11.509   0.000  0.00  0.00    -0.385 OA
ATOM     26  H   UNL     1       7.235 -10.669   0.000  0.00  0.00    +0.210 HD
ENDBRANCH  24  25
BRANCH  27  28
ATOM     28  O   UNL     1       8.250 -14.107   0.000  0.00  0.00    -0.456 OA
BRANCH  28  29
ATOM     29  C   UNL     1       9.000 -15.406   0.000  0.00  0.00    +0.304 C 
ATOM     30  C   UNL     1       8.250 -16.705   0.000  0.00  0.00    +0.136 C 
ATOM     31  O   UNL     1      10.500 -15.406   0.000  0.00  0.00    -0.251 OA
ENDBRANCH  28  29
ENDBRANCH  27  28
BRANCH  32  33
ATOM     33  O   UNL     1       6.750 -16.705   0.000  0.00  0.00    -0.335 OA
BRANCH  33  34
ATOM     34  C   UNL     1       5.250 -16.705   0.000  0.00  0.00    +0.283 C 
ATOM     35  C   UNL     1       4.500 -18.004   0.000  0.00  0.00    +0.213 C 
ATOM     38  C   UNL     1       3.000 -18.004   0.000  0.00  0.00    +0.240 C 
ATOM     43  C   UNL     1       2.250 -16.705   0.000  0.00  0.00    +0.186 C 
ATOM     46  C   UNL     1       3.000 -15.406   0.000  0.00  0.00    +0.150 C 
ATOM     47  C   UNL     1       2.250 -14.107   0.000  0.00  0.00    +0.041 C 
ATOM     48  O   UNL     1       4.500 -15.406   0.000  0.00  0.00    -0.343 OA
BRANCH  35  36
ATOM     36  O   UNL     1       5.250 -19.303   0.000  0.00  0.00    -0.383 OA
ATOM     37  H   UNL     1       4.765 -20.143   0.000  0.00  0.00    +0.210 HD
ENDBRANCH  35  36
BRANCH  43  44
ATOM     44  O   UNL     1       0.750 -16.705   0.000  0.00  0.00    -0.385 OA
ATOM     45  H   UNL     1       0.265 -15.865   0.000  0.00  0.00    +0.210 HD
ENDBRANCH  43  44
BRANCH  38  39
ATOM     39  O   UNL     1       3.750 -16.705   0.000  0.00  0.00    -0.456 OA
BRANCH  39  40
ATOM     40  C   UNL     1       5.250 -16.705   0.000  0.00  0.00    +0.304 C 
ATOM     41  C   UNL     1       6.000 -18.004   0.000  0.00  0.00    +0.136 C 
ATOM     42  O   UNL     1       6.000 -15.406   0.000  0.00  0.00    -0.251 OA
ENDBRANCH  39  40
ENDBRANCH  38  39
ENDBRANCH  33  34
ENDBRANCH  32  33
ENDBRANCH  19  20
ENDBRANCH  18  19
TORSDOF 16