REMARK  Name = NSC 376248
REMARK  4 active torsions:
REMARK  status: ('A' for Active; 'I' for Inactive)
REMARK    1  A    between atoms: O_1  and  C_2
REMARK    2  A    between atoms: O_1  and  C_3
REMARK    3  A    between atoms: C_14  and  C_15
REMARK    4  A    between atoms: C_27  and  C_28
REMARK                            x       y       z     vdW  Elec       q    Type
REMARK                         _______ _______ _______ _____ _____    ______ ____
ROOT
ATOM      3  C   UNL     1     -12.984   1.488   0.000  0.00  0.00    +0.130 A 
ATOM      4  C   UNL     1     -11.685   0.739   0.000  0.00  0.00    +0.093 A 
ATOM      5  C   UNL     1     -10.386   1.488   0.000  0.00  0.00    +0.143 A 
ATOM      6  O   UNL     1      -9.087   0.739   0.000  0.00  0.00    -0.454 OA
ATOM      7  C   UNL     1      -7.788   1.488   0.000  0.00  0.00    +0.143 A 
ATOM      8  C   UNL     1      -6.489   0.739   0.000  0.00  0.00    +0.098 A 
ATOM      9  C   UNL     1      -5.189   1.488   0.000  0.00  0.00    +0.186 A 
ATOM     10  O   UNL     1      -3.890   0.739   0.000  0.00  0.00    -0.288 OA
ATOM     11  C   UNL     1      -5.189   2.989   0.000  0.00  0.00    +0.098 A 
ATOM     12  C   UNL     1      -6.489   3.739   0.000  0.00  0.00    +0.143 A 
ATOM     13  O   UNL     1      -6.489   5.239   0.000  0.00  0.00    -0.455 OA
ATOM     14  C   UNL     1      -7.788   5.989   0.000  0.00  0.00    +0.136 A 
ATOM     21  C   UNL     1      -9.087   5.239   0.000  0.00  0.00    +0.056 A 
ATOM     22  C   UNL     1      -9.087   3.739   0.000  0.00  0.00    +0.007 A 
ATOM     23  C   UNL     1      -7.788   2.989   0.000  0.00  0.00    +0.068 A 
ATOM     24  C   UNL     1     -10.386   2.989   0.000  0.00  0.00    +0.067 A 
ATOM     25  C   UNL     1     -11.685   3.739   0.000  0.00  0.00    +0.139 A 
ATOM     26  O   UNL     1     -11.685   5.239   0.000  0.00  0.00    -0.483 OA
ATOM     27  C   UNL     1     -12.984   5.989   0.000  0.00  0.00    +0.204 C 
ATOM     34  C   UNL     1     -14.283   5.239   0.000  0.00  0.00    +0.054 C 
ATOM     35  C   UNL     1     -14.283   3.739   0.000  0.00  0.00    +0.046 C 
ATOM     36  C   UNL     1     -12.984   2.989   0.000  0.00  0.00    +0.037 A 
ENDROOT
BRANCH  14  15
ATOM     15  C   UNL     1      -7.788   7.489   0.000  0.00  0.00    +0.017 A 
ATOM     16  C   UNL     1      -6.489   8.239   0.000  0.00  0.00    +0.011 A 
ATOM     17  C   UNL     1      -6.489   9.739   0.000  0.00  0.00    +0.001 A 
ATOM     18  C   UNL     1      -7.788  10.489   0.000  0.00  0.00    +0.000 A 
ATOM     19  C   UNL     1      -9.087   9.739   0.000  0.00  0.00    +0.001 A 
ATOM     20  C   UNL     1      -9.087   8.239   0.000  0.00  0.00    +0.011 A 
ENDBRANCH  14  15
BRANCH  27  28
ATOM     28  C   UNL     1     -12.984   7.489   0.000  0.00  0.00    -0.007 A 
ATOM     29  C   UNL     1     -11.685   8.239   0.000  0.00  0.00    +0.007 A 
ATOM     30  C   UNL     1     -11.685   9.739   0.000  0.00  0.00    +0.000 A 
ATOM     31  C   UNL     1     -12.984  10.489   0.000  0.00  0.00    +0.000 A 
ATOM     32  C   UNL     1     -14.283   9.739   0.000  0.00  0.00    +0.000 A 
ATOM     33  C   UNL     1     -14.283   8.239   0.000  0.00  0.00    +0.007 A 
ENDBRANCH  27  28
BRANCH   3   1
ATOM      1  O   UNL     1     -14.283   0.739   0.000  0.00  0.00    -0.495 OA
ATOM      2  C   UNL     1     -15.582   1.488   0.000  0.00  0.00    +0.277 C 
ENDBRANCH   3   1
TORSDOF 3