REMARK  Name = NSC 105827
REMARK  7 active torsions:
REMARK  status: ('A' for Active; 'I' for Inactive)
REMARK    1  A    between atoms: C1*_2  and  N_3
REMARK    2  A    between atoms: C_5  and  C_6
REMARK    3  A    between atoms: C_6  and  N_7
REMARK    4  A    between atoms: C2*_16  and  O2*_17
REMARK    5  A    between atoms: C3*_18  and  O3*_19
REMARK    6  A    between atoms: C4*_20  and  C5*_21
REMARK    7  A    between atoms: C5*_21  and  O5*_22
REMARK                            x       y       z     vdW  Elec       q    Type
REMARK                         _______ _______ _______ _____ _____    ______ ____
ROOT
ATOM      3  N   UNL     1       3.628   7.296   0.000  0.00  0.00    -0.302 N 
ATOM      4  C   UNL     1       4.841   6.415   0.000  0.00  0.00    +0.101 A 
ATOM      5  C   UNL     1       6.055   7.296   0.000  0.00  0.00    +0.033 A 
ATOM     11  C   UNL     1       5.591   8.723   0.000  0.00  0.00    +0.068 A 
ATOM     12  C   UNL     1       6.341  10.022   0.000  0.00  0.00    +0.129 A 
ATOM     13  N   UNL     1       7.841  10.022   0.000  0.00  0.00    -0.343 N 
ATOM     14  H   UNL     1       8.334  10.875   0.000  0.00  0.00    +0.144 HD
ATOM     15  H   UNL     1       8.334   9.169   0.000  0.00  0.00    +0.144 HD
ATOM     16  N   UNL     1       5.591  11.321   0.000  0.00  0.00    -0.220 NA
ATOM     17  C   UNL     1       4.091  11.321   0.000  0.00  0.00    +0.225 A 
ATOM     18  N   UNL     1       3.341  10.022   0.000  0.00  0.00    -0.218 NA
ATOM     19  C   UNL     1       4.091   8.723   0.000  0.00  0.00    +0.148 A 
ENDROOT
BRANCH   3   2
ATOM      1  O4* UNL     1       0.988   7.715   0.000  0.00  0.00    -0.346 OA
ATOM      2  C1* UNL     1       2.201   6.833   0.000  0.00  0.00    +0.252 C 
ATOM     20  C2* UNL     1       1.738   5.406   0.000  0.00  0.00    +0.195 C 
ATOM     23  C3* UNL     1       0.238   5.406   0.000  0.00  0.00    +0.178 C 
ATOM     26  C4* UNL     1      -0.226   6.833   0.000  0.00  0.00    +0.177 C 
BRANCH  20  21
ATOM     21  O2* UNL     1       2.619   4.193   0.000  0.00  0.00    -0.385 OA
ATOM     22  H2* UNL     1       2.225   3.307   0.000  0.00  0.00    +0.210 HD
ENDBRANCH  20  21
BRANCH  23  24
ATOM     24  O3* UNL     1      -0.644   4.193   0.000  0.00  0.00    -0.386 OA
ATOM     25  H3* UNL     1      -1.609   4.294   0.000  0.00  0.00    +0.210 HD
ENDBRANCH  23  24
BRANCH  26  27
ATOM     27  C5* UNL     1      -1.652   7.296   0.000  0.00  0.00    +0.190 C 
BRANCH  27  28
ATOM     28  O5* UNL     1      -2.767   6.293   0.000  0.00  0.00    -0.392 OA
ATOM     29  H5* UNL     1      -3.690   6.592   0.000  0.00  0.00    +0.210 HD
ENDBRANCH  27  28
ENDBRANCH  26  27
ENDBRANCH   3   2
BRANCH   5   6
ATOM      6  C   UNL     1       7.481   6.833   0.000  0.00  0.00    +0.079 C 
ATOM     10  S   UNL     1       8.596   7.837   0.000  0.00  0.00    -0.035 S 
BRANCH   6   7
ATOM      7  N   UNL     1       7.793   5.366   0.000  0.00  0.00    -0.352 N 
ATOM      8  H   UNL     1       8.730   5.061   0.000  0.00  0.00    +0.143 HD
ATOM      9  H   UNL     1       7.062   4.707   0.000  0.00  0.00    +0.143 HD
ENDBRANCH   6   7
ENDBRANCH   5   6
TORSDOF 7