REMARK  Name = NSC 45923
REMARK  2 active torsions:
REMARK  status: ('A' for Active; 'I' for Inactive)
REMARK    1  A    between atoms: C_4  and  O_5
REMARK    2  A    between atoms: O_5  and  C_6
REMARK                            x       y       z     vdW  Elec       q    Type
REMARK                         _______ _______ _______ _____ _____    ______ ____
ROOT
ATOM      1  C   UNL     1      -3.348  -0.750   0.000  0.00  0.00    +0.019 A 
ATOM      2  C   UNL     1      -4.647  -1.500   0.000  0.00  0.00    +0.022 A 
ATOM      3  C   UNL     1      -4.647  -3.000   0.000  0.00  0.00    +0.184 A 
ATOM      4  C   UNL     1      -5.946  -3.750   0.000  0.00  0.00    +0.206 A 
ATOM      7  C   UNL     1      -7.245  -3.000   0.000  0.00  0.00    +0.180 A 
ATOM      8  O   UNL     1      -8.672  -3.463   0.000  0.00  0.00    -0.459 OA
ATOM      9  C   UNL     1      -9.553  -2.250   0.000  0.00  0.00    +0.196 A 
ATOM     10  C   UNL     1      -8.672  -1.037   0.000  0.00  0.00    +0.050 A 
ATOM     11  C   UNL     1      -7.245  -1.500   0.000  0.00  0.00    +0.025 A 
ATOM     12  O   UNL     1      -3.348  -3.750   0.000  0.00  0.00    -0.418 OA
ATOM     13  C   UNL     1      -2.049  -3.000   0.000  0.00  0.00    +0.337 A 
ATOM     14  O   UNL     1      -0.750  -3.750   0.000  0.00  0.00    -0.245 OA
ATOM     15  C   UNL     1      -5.946  -0.750   0.000  0.00  0.00    +0.023 A 
ATOM     16  C   UNL     1      -2.049  -1.500   0.000  0.00  0.00    +0.092 A 
ENDROOT
BRANCH   4   5
ATOM      5  O   UNL     1      -5.946  -5.250   0.000  0.00  0.00    -0.488 OA
ATOM      6  C   UNL     1      -4.647  -6.000   0.000  0.00  0.00    +0.277 C 
ENDBRANCH   4   5
TORSDOF 1