REMARK  Name = NSC 369397
REMARK  3 active torsions:
REMARK  status: ('A' for Active; 'I' for Inactive)
REMARK    1  A    between atoms: C_1  and  C_2
REMARK    2  A    between atoms: C_7  and  C_17
REMARK    3  A    between atoms: C_11  and  C_14
REMARK                            x       y       z     vdW  Elec       q    Type
REMARK                         _______ _______ _______ _____ _____    ______ ____
ROOT
ATOM      1  C   UNL     1      -3.782   0.317   0.000  0.00  0.00    +0.019 C 
ATOM      2  C   UNL     1      -3.782   1.817   0.000  0.00  0.00    +0.101 C 
ATOM      3  C   UNL     1      -2.483   2.567   0.000  0.00  0.00    +0.313 C 
ATOM      4  O   UNL     1      -2.483   4.067   0.000  0.00  0.00    -0.432 OA
ATOM      5  C   UNL     1      -3.782   4.817   0.000  0.00  0.00    +0.349 C 
ATOM      6  O   UNL     1      -3.212   6.294   0.000  0.00  0.00    -0.305 OA
ATOM      7  C   UNL     1      -4.176   7.443   0.000  0.00  0.00    +0.204 C 
ATOM      8  C   UNL     1      -5.676   7.443   0.000  0.00  0.00    +0.068 C 
ATOM      9  C   UNL     1      -6.641   6.294   0.000  0.00  0.00    +0.012 C 
ATOM     10  C   UNL     1      -6.380   4.817   0.000  0.00  0.00    +0.034 C 
ATOM     11  C   UNL     1      -7.679   4.067   0.000  0.00  0.00    -0.008 C 
ATOM     12  C   UNL     1      -7.679   2.567   0.000  0.00  0.00    +0.004 C 
ATOM     13  C   UNL     1      -6.380   1.817   0.000  0.00  0.00    +0.008 C 
ATOM     14  C   UNL     1      -8.978   4.817   0.000  0.00  0.00    +0.008 C 
ATOM     15  O   UNL     1      -3.027   6.479   0.000  0.00  0.00    -0.199 OA
ATOM     16  O   UNL     1      -3.416   5.030   0.000  0.00  0.00    -0.218 OA
ATOM     17  C   UNL     1      -3.663   8.852   0.000  0.00  0.00    +0.077 C 
ATOM     18  C   UNL     1      -5.081   4.067   0.000  0.00  0.00    +0.173 C 
ATOM     19  O   UNL     1      -1.184   1.817   0.000  0.00  0.00    -0.250 OA
ATOM     20  C   UNL     1      -5.081   2.567   0.000  0.00  0.00    +0.044 C 
ENDROOT
TORSDOF 0