REMARK  Name = NSC 105388
REMARK  18 active torsions:
REMARK  status: ('A' for Active; 'I' for Inactive)
REMARK    1  A    between atoms: C_1  and  C_2
REMARK    2  A    between atoms: C_3  and  O_4
REMARK    3  A    between atoms: C_5  and  O_6
REMARK    4  A    between atoms: C_7  and  O_8
REMARK    5  A    between atoms: C_10  and  O_11
REMARK    6  A    between atoms: C_13  and  O_14
REMARK    7  A    between atoms: C_16  and  O_17
REMARK    8  A    between atoms: C_19  and  O_20
REMARK    9  A    between atoms: C_22  and  O_23
REMARK   10  A    between atoms: C_24  and  C_25
REMARK   11  A    between atoms: C_25  and  C_26
REMARK   12  A    between atoms: C_25  and  O_31
REMARK   13  A    between atoms: C_26  and  C_27
REMARK   14  A    between atoms: C_27  and  C_28
REMARK   15  A    between atoms: C_28  and  C_29
REMARK   16  A    between atoms: C_29  and  C_30
REMARK   17  A    between atoms: C_35  and  C_36
REMARK   18  A    between atoms: C_37  and  O_38
REMARK                            x       y       z     vdW  Elec       q    Type
REMARK                         _______ _______ _______ _____ _____    ______ ____
ROOT
ATOM      1  C   UNL     1      -3.091  -3.457   0.000  0.00  0.00    -0.042 C 
ATOM      2  C   UNL     1      -3.091  -1.957   0.000  0.00  0.00    +0.042 C 
ATOM      3  C   UNL     1      -1.792  -4.207   0.000  0.00  0.00    +0.171 C 
ATOM      6  C   UNL     1      -1.792  -5.707   0.000  0.00  0.00    +0.176 C 
ATOM      9  C   UNL     1      -3.091  -6.457   0.000  0.00  0.00    +0.148 C 
ATOM     12  C   UNL     1      -3.091  -7.957   0.000  0.00  0.00    +0.065 C 
ATOM     13  C   UNL     1      -4.390  -8.707   0.000  0.00  0.00    +0.119 C 
ATOM     16  C   UNL     1      -5.689  -7.957   0.000  0.00  0.00    +0.062 C 
ATOM     17  C   UNL     1      -6.988  -8.707   0.000  0.00  0.00    +0.119 C 
ATOM     20  C   UNL     1      -8.287  -7.957   0.000  0.00  0.00    +0.062 C 
ATOM     21  C   UNL     1      -9.586  -8.707   0.000  0.00  0.00    +0.119 C 
ATOM     24  C   UNL     1     -10.885  -7.957   0.000  0.00  0.00    +0.062 C 
ATOM     25  C   UNL     1     -12.184  -8.707   0.000  0.00  0.00    +0.119 C 
ATOM     28  C   UNL     1     -13.483  -7.957   0.000  0.00  0.00    +0.063 C 
ATOM     29  C   UNL     1     -14.782  -8.707   0.000  0.00  0.00    +0.133 C 
ATOM     32  C   UNL     1     -16.081  -7.957   0.000  0.00  0.00    +0.155 C 
ATOM     41  C   UNL     1     -16.081  -6.457   0.000  0.00  0.00    +0.316 C 
ATOM     42  O   UNL     1     -17.381  -5.707   0.000  0.00  0.00    -0.458 OA
ATOM     43  C   UNL     1     -17.381  -4.207   0.000  0.00  0.00    +0.206 C 
ATOM     44  C   UNL     1     -18.680  -3.457   0.000  0.00  0.00    +0.055 C 
ATOM     45  C   UNL     1     -16.081  -3.457   0.000  0.00  0.00    +0.178 C 
ATOM     48  C   UNL     1     -14.782  -4.207   0.000  0.00  0.00    +0.007 C 
ATOM     49  C   UNL     1     -13.483  -3.457   0.000  0.00  0.00    -0.002 C 
ATOM     50  C   UNL     1     -12.184  -4.207   0.000  0.00  0.00    -0.000 C 
ATOM     51  C   UNL     1     -10.885  -3.457   0.000  0.00  0.00    -0.000 C 
ATOM     52  C   UNL     1      -9.586  -4.207   0.000  0.00  0.00    -0.000 C 
ATOM     53  C   UNL     1      -8.287  -3.457   0.000  0.00  0.00    -0.000 C 
ATOM     54  C   UNL     1      -6.988  -4.207   0.000  0.00  0.00    -0.000 C 
ATOM     55  C   UNL     1      -5.689  -3.457   0.000  0.00  0.00    +0.000 C 
ATOM     56  O   UNL     1     -14.782  -5.707   0.000  0.00  0.00    -0.250 OA
ATOM     57  C   UNL     1      -4.390  -4.207   0.000  0.00  0.00    +0.002 C 
ENDROOT
BRANCH   3   4
ATOM      4  O   UNL     1      -0.493  -3.457   0.000  0.00  0.00    -0.385 OA
ATOM      5  H   UNL     1       0.347  -3.942   0.000  0.00  0.00    +0.210 HD
ENDBRANCH   3   4
BRANCH   6   7
ATOM      7  O   UNL     1      -0.493  -6.457   0.000  0.00  0.00    -0.386 OA
ATOM      8  H   UNL     1      -0.493  -7.427   0.000  0.00  0.00    +0.210 HD
ENDBRANCH   6   7
BRANCH   9  10
ATOM     10  O   UNL     1      -1.792  -7.207   0.000  0.00  0.00    -0.389 OA
ATOM     11  H   UNL     1      -1.792  -8.177   0.000  0.00  0.00    +0.210 HD
ENDBRANCH   9  10
BRANCH  13  14
ATOM     14  O   UNL     1      -4.390 -10.207   0.000  0.00  0.00    -0.392 OA
ATOM     15  H   UNL     1      -5.230 -10.692   0.000  0.00  0.00    +0.210 HD
ENDBRANCH  13  14
BRANCH  17  18
ATOM     18  O   UNL     1      -6.988 -10.207   0.000  0.00  0.00    -0.392 OA
ATOM     19  H   UNL     1      -7.828 -10.692   0.000  0.00  0.00    +0.210 HD
ENDBRANCH  17  18
BRANCH  21  22
ATOM     22  O   UNL     1      -9.586 -10.207   0.000  0.00  0.00    -0.392 OA
ATOM     23  H   UNL     1     -10.426 -10.692   0.000  0.00  0.00    +0.210 HD
ENDBRANCH  21  22
BRANCH  25  26
ATOM     26  O   UNL     1     -12.184 -10.207   0.000  0.00  0.00    -0.392 OA
ATOM     27  H   UNL     1     -13.024 -10.692   0.000  0.00  0.00    +0.210 HD
ENDBRANCH  25  26
BRANCH  29  30
ATOM     30  O   UNL     1     -14.782 -10.207   0.000  0.00  0.00    -0.391 OA
ATOM     31  H   UNL     1     -15.622 -10.692   0.000  0.00  0.00    +0.210 HD
ENDBRANCH  29  30
BRANCH  45  46
ATOM     46  O   UNL     1     -16.081  -1.957   0.000  0.00  0.00    -0.384 OA
ATOM     47  H   UNL     1     -15.241  -1.472   0.000  0.00  0.00    +0.210 HD
ENDBRANCH  45  46
BRANCH  32  33
ATOM     33  C   UNL     1     -17.381  -8.707   0.000  0.00  0.00    +0.131 C 
BRANCH  33  39
ATOM     39  O   UNL     1     -18.680  -9.457   0.000  0.00  0.00    -0.391 OA
ATOM     40  H   UNL     1     -19.520  -8.972   0.000  0.00  0.00    +0.210 HD
ENDBRANCH  33  39
BRANCH  33  34
ATOM     34  C   UNL     1     -16.631 -10.006   0.000  0.00  0.00    +0.032 C 
BRANCH  34  35
ATOM     35  C   UNL     1     -17.381 -11.305   0.000  0.00  0.00    +0.003 C 
BRANCH  35  36
ATOM     36  C   UNL     1     -16.631 -12.604   0.000  0.00  0.00    -0.000 C 
BRANCH  36  37
ATOM     37  C   UNL     1     -17.381 -13.903   0.000  0.00  0.00    -0.003 C 
ATOM     38  C   UNL     1     -16.631 -15.202   0.000  0.00  0.00    +0.004 C 
ENDBRANCH  36  37
ENDBRANCH  35  36
ENDBRANCH  34  35
ENDBRANCH  33  34
ENDBRANCH  32  33
TORSDOF 15