REMARK  Name = NSC 785180
REMARK  5 active torsions:
REMARK  status: ('A' for Active; 'I' for Inactive)
REMARK    1  A    between atoms: C_1  and  C_2
REMARK    2  A    between atoms: C_1  and  C_26
REMARK    3  A    between atoms: C_18  and  C_19
REMARK    4  A    between atoms: C_19  and  O_21
REMARK    5  A    between atoms: O_21  and  C_22
REMARK                            x       y       z     vdW  Elec       q    Type
REMARK                         _______ _______ _______ _____ _____    ______ ____
ROOT
ATOM      2  C   UNL     1       1.918   0.557   0.000  0.00  0.00    -0.008 C 
ATOM      3  C   UNL     1       3.090   1.494   0.000  0.00  0.00    +0.010 C 
ATOM      4  C   UNL     1       2.864   2.977   0.000  0.00  0.00    +0.016 C 
ATOM      5  C   UNL     1       1.467   3.523   0.000  0.00  0.00    +0.085 C 
ATOM      6  N   UNL     1       0.296   2.586   0.000  0.00  0.00    -0.298 NA
ATOM      7  C   UNL     1      -1.312   2.453   0.000  0.00  0.00    +0.086 C 
ATOM      8  C   UNL     1      -1.858   1.056   0.000  0.00  0.00    +0.034 C 
ATOM      9  C   UNL     1      -0.650   0.167   0.000  0.00  0.00    +0.053 C 
ATOM     10  C   UNL     1      -2.130   0.410   0.000  0.00  0.00    -0.013 A 
ATOM     11  C   UNL     1      -2.940   1.673   0.000  0.00  0.00    +0.006 A 
ATOM     12  C   UNL     1      -4.438   1.604   0.000  0.00  0.00    +0.000 A 
ATOM     13  C   UNL     1      -5.127   0.272   0.000  0.00  0.00    +0.002 A 
ATOM     14  C   UNL     1      -4.318  -0.992   0.000  0.00  0.00    +0.023 A 
ATOM     15  C   UNL     1      -2.820  -0.922   0.000  0.00  0.00    +0.035 A 
ATOM     16  N   UNL     1      -1.765  -1.989   0.000  0.00  0.00    -0.316 N 
ATOM     17  H   UNL     1      -1.925  -2.961   0.000  0.00  0.00    +0.152 HD
ATOM     18  C   UNL     1      -0.425  -1.317   0.000  0.00  0.00    +0.030 C 
ATOM     19  C   UNL     1       0.972  -1.863   0.000  0.00  0.00    +0.055 C 
ATOM     24  C   UNL     1       2.144  -0.926   0.000  0.00  0.00    +0.052 C 
ATOM     25  C   UNL     1       0.521   1.103   0.000  0.00  0.00    +0.079 C 
ENDROOT
BRANCH   2   1
ATOM      1  C   UNL     1       3.315   0.011   0.000  0.00  0.00    +0.005 C 
ATOM     26  C   UNL     1       4.487   0.948   0.000  0.00  0.00    +0.004 C 
ENDBRANCH   2   1
BRANCH  19  20
ATOM     20  C   UNL     1       1.198  -3.345   0.000  0.00  0.00    +0.336 C 
ATOM     21  O   UNL     1       0.026  -4.282   0.000  0.00  0.00    -0.245 OA
BRANCH  20  22
ATOM     22  O   UNL     1       2.595  -3.892   0.000  0.00  0.00    -0.465 OA
ATOM     23  C   UNL     1       3.766  -2.955   0.000  0.00  0.00    +0.280 C 
ENDBRANCH  20  22
ENDBRANCH  19  20
TORSDOF 3