REMARK  Name = NSC 785189#1
REMARK  8 active torsions:
REMARK  status: ('A' for Active; 'I' for Inactive)
REMARK    1  A    between atoms: C_1  and  O_24
REMARK    2  A    between atoms: C_2  and  O_3
REMARK    3  A    between atoms: O_3  and  C_4
REMARK    4  A    between atoms: C_8  and  O_9
REMARK    5  A    between atoms: O_9  and  C_10
REMARK    6  A    between atoms: C_11  and  O_12
REMARK    7  A    between atoms: N_18  and  C_19
REMARK    8  A    between atoms: O_24  and  C_25
REMARK                            x       y       z     vdW  Elec       q    Type
REMARK                         _______ _______ _______ _____ _____    ______ ____
ROOT
ATOM      1  C   UNL     1      -1.808  11.849   0.000  0.00  0.00    +0.162 A 
ATOM      2  C   UNL     1      -1.809  10.349   0.000  0.00  0.00    +0.169 A 
ATOM      5  C   UNL     1      -0.511   9.597   0.000  0.00  0.00    +0.033 A 
ATOM      6  C   UNL     1      -0.513   8.097   0.000  0.00  0.00    -0.007 A 
ATOM      7  C   UNL     1      -1.813   7.349   0.000  0.00  0.00    +0.058 A 
ATOM      8  C   UNL     1      -1.814   5.849   0.000  0.00  0.00    +0.162 A 
ATOM     11  C   UNL     1      -0.516   5.097   0.000  0.00  0.00    +0.159 A 
ATOM     14  C   UNL     1       0.784   5.846   0.000  0.00  0.00    +0.053 A 
ATOM     15  C   UNL     1       0.785   7.346   0.000  0.00  0.00    -0.034 A 
ATOM     16  C   UNL     1       2.085   8.094   0.000  0.00  0.00    +0.059 C 
ATOM     17  C   UNL     1       2.087   9.594   0.000  0.00  0.00    +0.092 C 
ATOM     18  N   UNL     1       3.387  10.343   0.000  0.00  0.00    -0.298 NA
ATOM     19  C   UNL     1       4.685   9.592   0.000  0.00  0.00    +0.105 C 
ATOM     20  C   UNL     1       3.389  11.843   0.000  0.00  0.00    +0.089 C 
ATOM     21  C   UNL     1       2.090  12.594   0.000  0.00  0.00    +0.051 C 
ATOM     22  C   UNL     1       0.790  11.846   0.000  0.00  0.00    -0.037 A 
ATOM     23  C   UNL     1       0.789  10.346   0.000  0.00  0.00    -0.015 A 
ATOM     26  C   UNL     1      -0.508  12.597   0.000  0.00  0.00    +0.053 A 
ENDROOT
BRANCH   2   3
ATOM      3  O   UNL     1      -3.109   9.600   0.000  0.00  0.00    -0.491 OA
ATOM      4  C   UNL     1      -4.407  10.352   0.000  0.00  0.00    +0.277 C 
ENDBRANCH   2   3
BRANCH   8   9
ATOM      9  O   UNL     1      -3.114   5.100   0.000  0.00  0.00    -0.491 OA
ATOM     10  C   UNL     1      -4.412   5.851   0.000  0.00  0.00    +0.277 C 
ENDBRANCH   8   9
BRANCH  11  12
ATOM     12  O   UNL     1      -0.518   3.597   0.000  0.00  0.00    -0.503 OA
ATOM     13  H   UNL     1      -1.330   3.130   0.000  0.00  0.00    +0.292 HD
ENDBRANCH  11  12
BRANCH   1  24
ATOM     24  O   UNL     1      -3.106  12.600   0.000  0.00  0.00    -0.491 OA
ATOM     25  C   UNL     1      -3.104  14.100   0.000  0.00  0.00    +0.277 C 
ENDBRANCH   1  24
TORSDOF 4