REMARK  Name = NSC 107453
REMARK  8 active torsions:
REMARK  status: ('A' for Active; 'I' for Inactive)
REMARK    1  A    between atoms: C_2  and  S_3
REMARK    2  A    between atoms: S_3  and  N_6
REMARK    3  A    between atoms: N_6  and  N_7
REMARK    4  A    between atoms: C_8  and  C_10
REMARK    5  A    between atoms: C_11  and  N_12
REMARK    6  A    between atoms: C_14  and  C_15
REMARK    7  A    between atoms: C_16  and  C_17
REMARK    8  A    between atoms: C_21  and  C_22
REMARK                            x       y       z     vdW  Elec       q    Type
REMARK                         _______ _______ _______ _____ _____    ______ ____
ROOT
ATOM      8  N   UNL     1      -4.775  -8.123   0.000  0.00  0.00    -0.228 N 
ATOM      9  H   UNL     1      -4.775  -9.107   0.000  0.00  0.00    +0.171 HD
ATOM     10  C   UNL     1      -6.074  -7.373   0.000  0.00  0.00    +0.261 C 
ATOM     11  O   UNL     1      -6.074  -5.873   0.000  0.00  0.00    -0.269 OA
ENDROOT
BRANCH  10  12
ATOM     12  C   UNL     1      -7.373  -8.123   0.000  0.00  0.00    +0.059 A 
ATOM     13  C   UNL     1      -7.373  -9.623   0.000  0.00  0.00    +0.037 A 
ATOM     17  C   UNL     1      -8.672 -10.373   0.000  0.00  0.00    +0.027 A 
ATOM     18  C   UNL     1      -9.971  -9.623   0.000  0.00  0.00    -0.046 A 
ATOM     19  C   UNL     1     -11.270 -10.373   0.000  0.00  0.00    +0.044 C 
ATOM     20  C   UNL     1      -9.971  -8.123   0.000  0.00  0.00    -0.047 A 
ATOM     21  C   UNL     1     -11.270  -7.373   0.000  0.00  0.00    +0.044 C 
ATOM     22  C   UNL     1      -8.672  -7.373   0.000  0.00  0.00    +0.018 A 
BRANCH  13  14
ATOM     14  N   UNL     1      -6.074 -10.373   0.000  0.00  0.00    -0.357 N 
ATOM     15  H   UNL     1      -5.221  -9.880   0.000  0.00  0.00    +0.142 HD
ATOM     16  H   UNL     1      -6.074 -11.357   0.000  0.00  0.00    +0.142 HD
ENDBRANCH  13  14
ENDBRANCH  10  12
BRANCH   8   6
ATOM      6  N   UNL     1      -3.475  -7.373   0.000  0.00  0.00    -0.108 NA
ATOM      7  H   UNL     1      -2.592  -7.883   0.000  0.00  0.00    +0.172 HD
BRANCH   6   3
ATOM      3  S   UNL     1      -3.475  -5.873   0.000  0.00  0.00    +0.074 S 
ATOM      4  O   UNL     1      -4.976  -5.873   0.000  0.00  0.00    -0.152 OA
ATOM      5  O   UNL     1      -3.475  -4.373   0.000  0.00  0.00    -0.152 OA
BRANCH   3   2
ATOM      1  C   UNL     1      -1.226  -4.574   0.000  0.00  0.00    +0.029 A 
ATOM      2  C   UNL     1      -1.976  -5.873   0.000  0.00  0.00    +0.107 A 
ATOM     23  C   UNL     1      -1.226  -7.172   0.000  0.00  0.00    +0.029 A 
ATOM     24  C   UNL     1       0.275  -7.172   0.000  0.00  0.00    +0.005 A 
ATOM     25  C   UNL     1       1.025  -5.873   0.000  0.00  0.00    -0.050 A 
ATOM     26  C   UNL     1       2.525  -5.873   0.000  0.00  0.00    +0.044 C 
ATOM     27  C   UNL     1       0.275  -4.574   0.000  0.00  0.00    +0.005 A 
ENDBRANCH   3   2
ENDBRANCH   6   3
ENDBRANCH   8   6
TORSDOF 5