REMARK  Name = NSC 26258
REMARK  6 active torsions:
REMARK  status: ('A' for Active; 'I' for Inactive)
REMARK    1  A    between atoms: C_4  and  O_5
REMARK    2  A    between atoms: O_5  and  C_6
REMARK    3  A    between atoms: C_7  and  O_8
REMARK    4  A    between atoms: O_8  and  C_9
REMARK    5  A    between atoms: C_21  and  C_22
REMARK    6  A    between atoms: C_22  and  C_24
REMARK                            x       y       z     vdW  Elec       q    Type
REMARK                         _______ _______ _______ _____ _____    ______ ____
ROOT
ATOM      1  O   UNL     1      -9.666  -6.447   0.000  0.00  0.00    -0.488 OA
ATOM      2  C   UNL     1      -9.666  -7.947   0.000  0.00  0.00    +0.128 A 
ATOM      3  C   UNL     1     -10.966  -8.697   0.000  0.00  0.00    +0.095 A 
ATOM      4  C   UNL     1     -10.966 -10.197   0.000  0.00  0.00    +0.165 A 
ATOM      7  C   UNL     1      -9.666 -10.947   0.000  0.00  0.00    +0.162 A 
ATOM     10  C   UNL     1      -8.367 -10.197   0.000  0.00  0.00    +0.057 A 
ATOM     11  C   UNL     1      -8.367  -8.697   0.000  0.00  0.00    +0.012 A 
ATOM     12  C   UNL     1      -7.068  -7.947   0.000  0.00  0.00    +0.138 C 
ATOM     13  C   UNL     1      -7.068  -6.447   0.000  0.00  0.00    +0.226 C 
ATOM     14  O   UNL     1      -5.769  -5.697   0.000  0.00  0.00    -0.483 OA
ATOM     15  C   UNL     1      -4.470  -6.447   0.000  0.00  0.00    +0.138 A 
ATOM     16  C   UNL     1      -4.470  -7.947   0.000  0.00  0.00    +0.060 A 
ATOM     17  C   UNL     1      -3.171  -8.697   0.000  0.00  0.00    +0.018 A 
ATOM     18  C   UNL     1      -1.872  -7.947   0.000  0.00  0.00    +0.047 A 
ATOM     19  C   UNL     1      -1.872  -6.447   0.000  0.00  0.00    +0.128 A 
ATOM     20  O   UNL     1      -0.758  -5.443   0.000  0.00  0.00    -0.484 OA
ATOM     21  C   UNL     1      -1.368  -4.073   0.000  0.00  0.00    +0.203 C 
ATOM     25  C   UNL     1      -2.859  -4.230   0.000  0.00  0.00    +0.091 C 
ATOM     26  C   UNL     1      -3.171  -5.697   0.000  0.00  0.00    +0.040 A 
ATOM     27  C   UNL     1      -5.769  -8.697   0.000  0.00  0.00    +0.178 C 
ATOM     28  O   UNL     1      -5.769 -10.197   0.000  0.00  0.00    -0.291 OA
ATOM     29  C   UNL     1      -8.367  -5.697   0.000  0.00  0.00    +0.274 C 
ENDROOT
BRANCH  21  22
ATOM     22  C   UNL     1       0.059  -3.609   0.000  0.00  0.00    -0.040 C 
ATOM     23  C   UNL     1       0.371  -2.142   0.000  0.00  0.00    +0.011 C 
ATOM     24  C   UNL     1       1.174  -4.613   0.000  0.00  0.00    +0.042 C 
ENDBRANCH  21  22
BRANCH   4   5
ATOM      5  O   UNL     1     -12.265 -10.947   0.000  0.00  0.00    -0.491 OA
ATOM      6  C   UNL     1     -13.564 -10.197   0.000  0.00  0.00    +0.277 C 
ENDBRANCH   4   5
BRANCH   7   8
ATOM      8  O   UNL     1      -9.666 -12.447   0.000  0.00  0.00    -0.491 OA
ATOM      9  C   UNL     1     -10.966 -13.197   0.000  0.00  0.00    +0.277 C 
ENDBRANCH   7   8
TORSDOF 3