REMARK  Name = NSC 129536
REMARK  6 active torsions:
REMARK  status: ('A' for Active; 'I' for Inactive)
REMARK    1  A    between atoms: C_4  and  C_5
REMARK    2  A    between atoms: C_5  and  O_6
REMARK    3  A    between atoms: C_5  and  C_7
REMARK    4  A    between atoms: C_5  and  C_8
REMARK    5  A    between atoms: C_10  and  O_11
REMARK    6  A    between atoms: C_19  and  C_20
REMARK                            x       y       z     vdW  Elec       q    Type
REMARK                         _______ _______ _______ _____ _____    ______ ____
ROOT
ATOM      1  O   UNL     1      -5.683   7.339   0.000  0.00  0.00    -0.455 OA
ATOM      2  C   UNL     1      -4.783   6.000   0.000  0.00  0.00    +0.229 C 
ATOM      3  C   UNL     1      -4.783   4.500   0.000  0.00  0.00    +0.224 C 
ATOM      4  C   UNL     1      -3.484   3.750   0.000  0.00  0.00    +0.081 C 
ATOM     10  C   UNL     1      -2.185   4.500   0.000  0.00  0.00    +0.139 C 
ATOM     11  C   UNL     1      -2.185   6.000   0.000  0.00  0.00    +0.094 C 
ATOM     14  C   UNL     1      -1.285   7.339   0.000  0.00  0.00    +0.071 C 
ATOM     15  C   UNL     1      -2.035   8.638   0.000  0.00  0.00    +0.166 C 
ATOM     16  O   UNL     1      -3.096   9.699   0.000  0.00  0.00    -0.352 OA
ATOM     17  C   UNL     1      -3.484   8.250   0.000  0.00  0.00    +0.203 C 
ATOM     18  C   UNL     1      -2.573   3.051   0.000  0.00  0.00    +0.314 C 
ATOM     19  O   UNL     1      -1.660   1.861   0.000  0.00  0.00    -0.250 OA
ATOM     20  O   UNL     1      -4.073   3.051   0.000  0.00  0.00    -0.457 OA
ATOM     21  C   UNL     1      -3.484   6.750   0.000  0.00  0.00    +0.080 C 
ATOM     22  C   UNL     1      -2.185   7.500   0.000  0.00  0.00    +0.021 C 
ATOM     23  C   UNL     1      -4.933   8.638   0.000  0.00  0.00    +0.343 C 
ATOM     24  O   UNL     1      -5.507  10.024   0.000  0.00  0.00    -0.247 OA
ENDROOT
BRANCH   4   5
ATOM      5  C   UNL     1      -3.484   2.250   0.000  0.00  0.00    +0.068 C 
ATOM      8  C   UNL     1      -3.484   0.750   0.000  0.00  0.00    +0.041 C 
ATOM      9  C   UNL     1      -4.984   2.250   0.000  0.00  0.00    +0.041 C 
BRANCH   5   6
ATOM      6  O   UNL     1      -1.984   2.250   0.000  0.00  0.00    -0.389 OA
ATOM      7  H   UNL     1      -1.499   1.410   0.000  0.00  0.00    +0.210 HD
ENDBRANCH   5   6
ENDBRANCH   4   5
BRANCH  11  12
ATOM     12  O   UNL     1      -0.750   5.563   0.000  0.00  0.00    -0.387 OA
ATOM     13  H   UNL     1      -0.531   4.618   0.000  0.00  0.00    +0.210 HD
ENDBRANCH  11  12
TORSDOF 3