REMARK  Name = NSC 22070
REMARK  5 active torsions:
REMARK  status: ('A' for Active; 'I' for Inactive)
REMARK    1  A    between atoms: C_1  and  C_2
REMARK    2  A    between atoms: C_11  and  O_17
REMARK    3  A    between atoms: C_13  and  C_14
REMARK    4  A    between atoms: O_17  and  C_18
REMARK    5  A    between atoms: C_18  and  C_20
REMARK                            x       y       z     vdW  Elec       q    Type
REMARK                         _______ _______ _______ _____ _____    ______ ____
ROOT
ATOM      1  C   UNL     1       0.919   4.814   0.000  0.00  0.00    +0.044 C 
ATOM      2  C   UNL     1       0.169   6.113   0.000  0.00  0.00    +0.097 C 
ATOM      3  C   UNL     1       1.468   6.863   0.000  0.00  0.00    +0.082 C 
ATOM      4  C   UNL     1       2.767   6.113   0.000  0.00  0.00    +0.191 C 
ATOM      5  O   UNL     1       3.079   4.646   0.000  0.00  0.00    -0.457 OA
ATOM      6  C   UNL     1       4.571   4.489   0.000  0.00  0.00    +0.335 C 
ATOM      7  C   UNL     1       5.181   5.859   0.000  0.00  0.00    +0.040 C 
ATOM      8  C   UNL     1       6.648   6.171   0.000  0.00  0.00    +0.020 C 
ATOM      9  O   UNL     1       5.321   3.190   0.000  0.00  0.00    -0.245 OA
ATOM     10  C   UNL     1       4.066   6.863   0.000  0.00  0.00    +0.111 C 
ATOM     11  C   UNL     1       4.066   8.363   0.000  0.00  0.00    +0.210 C 
ATOM     12  C   UNL     1       2.767   9.113   0.000  0.00  0.00    +0.017 C 
ATOM     13  C   UNL     1       1.468   8.363   0.000  0.00  0.00    -0.073 C 
ATOM     14  C   UNL     1       1.468   6.863   0.000  0.00  0.00    +0.039 C 
ATOM     15  C   UNL     1       0.169   9.113   0.000  0.00  0.00    +0.033 C 
ATOM     16  C   UNL     1      -1.130   8.363   0.000  0.00  0.00    +0.039 C 
ATOM     21  O   UNL     1      -1.130   5.363   0.000  0.00  0.00    -0.365 OA
ATOM     22  C   UNL     1      -1.130   6.863   0.000  0.00  0.00    +0.151 C 
ENDROOT
BRANCH  11  17
ATOM     17  O   UNL     1       5.365   9.113   0.000  0.00  0.00    -0.457 OA
BRANCH  17  18
ATOM     18  C   UNL     1       5.365  10.613   0.000  0.00  0.00    +0.305 C 
ATOM     19  O   UNL     1       4.066  11.363   0.000  0.00  0.00    -0.251 OA
ATOM     20  C   UNL     1       6.664  11.363   0.000  0.00  0.00    +0.136 C 
ENDBRANCH  17  18
ENDBRANCH  11  17
TORSDOF 2