REMARK  Name = NSC 269753
REMARK  8 active torsions:
REMARK  status: ('A' for Active; 'I' for Inactive)
REMARK    1  A    between atoms: C_4  and  C_5
REMARK    2  A    between atoms: C_6  and  O_7
REMARK    3  A    between atoms: C_10  and  C_11
REMARK    4  A    between atoms: C_11  and  C_12
REMARK    5  A    between atoms: C_11  and  O_13
REMARK    6  A    between atoms: C_32  and  O_33
REMARK    7  A    between atoms: C_34  and  C_35
REMARK    8  A    between atoms: C_39  and  C_40
REMARK                            x       y       z     vdW  Elec       q    Type
REMARK                         _______ _______ _______ _____ _____    ______ ____
ROOT
ATOM      1  O   UNL     1      -4.992  -2.595   0.000  0.00  0.00    -0.251 OA
ATOM      2  C   UNL     1      -3.628  -1.971   0.000  0.00  0.00    +0.307 C 
ATOM      3  C   UNL     1      -2.321  -2.708   0.000  0.00  0.00    +0.126 C 
ATOM      4  C   UNL     1      -2.228  -4.205   0.000  0.00  0.00    +0.027 C 
ATOM      5  C   UNL     1      -3.377  -5.169   0.000  0.00  0.00    +0.011 C 
ATOM      6  C   UNL     1      -0.770  -4.555   0.000  0.00  0.00    +0.143 C 
ATOM      9  C   UNL     1      -0.270  -5.970   0.000  0.00  0.00    +0.192 C 
ATOM     10  O   UNL     1       1.229  -5.932   0.000  0.00  0.00    -0.367 OA
ATOM     11  C   UNL     1       1.657  -4.494   0.000  0.00  0.00    +0.169 C 
ATOM     16  C   UNL     1       3.095  -4.070   0.000  0.00  0.00    +0.007 C 
ATOM     17  C   UNL     1       3.113  -2.570   0.000  0.00  0.00    -0.001 C 
ATOM     18  C   UNL     1       4.381  -1.768   0.000  0.00  0.00    +0.007 C 
ATOM     19  C   UNL     1       4.010  -0.315   0.000  0.00  0.00    +0.091 C 
ATOM     20  C   UNL     1       2.513  -0.218   0.000  0.00  0.00    +0.332 C 
ATOM     21  O   UNL     1       3.662   0.747   0.000  0.00  0.00    -0.246 OA
ATOM     22  O   UNL     1       2.677   1.273   0.000  0.00  0.00    -0.458 OA
ATOM     23  C   UNL     1       1.418   1.779   0.000  0.00  0.00    +0.189 C 
ATOM     24  C   UNL     1       1.325   3.277   0.000  0.00  0.00    +0.080 C 
ATOM     25  C   UNL     1       0.725   3.337   0.000  0.00  0.00    +0.157 C 
ATOM     26  C   UNL     1       1.390   1.912   0.000  0.00  0.00    +0.128 C 
ATOM     27  C   UNL     1       2.927   2.420   0.000  0.00  0.00    +0.199 C 
ATOM     28  O   UNL     1       2.685   0.940   0.000  0.00  0.00    -0.365 OA
ATOM     29  O   UNL     1      -0.755   3.579   0.000  0.00  0.00    -0.366 OA
ATOM     30  C   UNL     1      -1.705   2.418   0.000  0.00  0.00    +0.152 C 
ATOM     31  C   UNL     1      -1.175   1.015   0.000  0.00  0.00    +0.049 C 
ATOM     32  C   UNL     1      -2.125  -0.145   0.000  0.00  0.00    +0.049 C 
ATOM     33  C   UNL     1      -3.605   0.097   0.000  0.00  0.00    +0.141 C 
ATOM     36  C   UNL     1      -4.136   1.500   0.000  0.00  0.00    -0.046 C 
ATOM     37  C   UNL     1      -5.616   1.742   0.000  0.00  0.00    +0.041 C 
ATOM     38  C   UNL     1      -1.841  -0.328   0.000  0.00  0.00    +0.242 C 
ATOM     39  C   UNL     1      -3.186   2.661   0.000  0.00  0.00    +0.006 C 
ATOM     40  C   UNL     1       0.305   0.773   0.000  0.00  0.00    +0.050 C 
ATOM     41  C   UNL     1       0.729  -0.666   0.000  0.00  0.00    +0.019 C 
ATOM     42  O   UNL     1      -3.331  -0.501   0.000  0.00  0.00    -0.464 OA
ENDROOT
BRANCH   6   7
ATOM      7  O   UNL     1       0.235  -3.441   0.000  0.00  0.00    -0.389 OA
ATOM      8  H   UNL     1       1.183  -3.643   0.000  0.00  0.00    +0.210 HD
ENDBRANCH   6   7
BRANCH  11  12
ATOM     12  C   UNL     1       2.716  -5.556   0.000  0.00  0.00    +0.144 C 
ATOM     13  C   UNL     1       2.326  -7.004   0.000  0.00  0.00    +0.040 C 
BRANCH  12  14
ATOM     14  O   UNL     1       4.165  -5.169   0.000  0.00  0.00    -0.389 OA
ATOM     15  H   UNL     1       4.851  -5.856   0.000  0.00  0.00    +0.210 HD
ENDBRANCH  12  14
ENDBRANCH  11  12
BRANCH  33  34
ATOM     34  O   UNL     1      -4.555  -1.064   0.000  0.00  0.00    -0.387 OA
ATOM     35  H   UNL     1      -5.512  -0.907   0.000  0.00  0.00    +0.210 HD
ENDBRANCH  33  34
TORSDOF 4