REMARK  Name = NSC 3716
REMARK  5 active torsions:
REMARK  status: ('A' for Active; 'I' for Inactive)
REMARK    1  A    between atoms: C_1  and  C_2
REMARK    2  A    between atoms: C_1  and  O_8
REMARK    3  A    between atoms: C_2  and  C_3
REMARK    4  A    between atoms: C_3  and  C_4
REMARK    5  A    between atoms: C_4  and  C_5
REMARK                            x       y       z     vdW  Elec       q    Type
REMARK                         _______ _______ _______ _____ _____    ______ ____
ROOT
ATOM      2  C   UNL     1      -3.000  -3.348   0.000  0.00  0.00    +0.128 C 
ENDROOT
BRANCH   2   1
ATOM      1  C   UNL     1      -2.250  -2.049   0.000  0.00  0.00    +0.305 C 
ATOM      7  O   UNL     1      -0.750  -2.049   0.000  0.00  0.00    -0.251 OA
BRANCH   1   8
ATOM      8  O   UNL     1      -3.000  -0.750   0.000  0.00  0.00    -0.481 OA
ATOM      9  H   UNL     1      -2.532   0.061   0.000  0.00  0.00    +0.295 HD
ENDBRANCH   1   8
ENDBRANCH   2   1
BRANCH   2   3
ATOM      3  C   UNL     1      -4.500  -3.348   0.000  0.00  0.00    +0.085 C 
BRANCH   3   4
ATOM      4  C   UNL     1      -5.250  -2.049   0.000  0.00  0.00    +0.131 C 
ATOM      5  C   UNL     1      -4.500  -0.750   0.000  0.00  0.00    +0.086 C 
ATOM      6  O   UNL     1      -6.750  -2.049   0.000  0.00  0.00    -0.298 OA
ENDBRANCH   3   4
ENDBRANCH   2   3
TORSDOF 4