REMARK  Name = NSC 26254
REMARK  7 active torsions:
REMARK  status: ('A' for Active; 'I' for Inactive)
REMARK    1  A    between atoms: C_1  and  O_12
REMARK    2  A    between atoms: C_2  and  O_3
REMARK    3  A    between atoms: C_4  and  O_5
REMARK    4  A    between atoms: C_6  and  O_7
REMARK    5  A    between atoms: C_8  and  O_9
REMARK    6  A    between atoms: C_10  and  O_11
REMARK    7  A    between atoms: O_12  and  C_13
REMARK                            x       y       z     vdW  Elec       q    Type
REMARK                         _______ _______ _______ _____ _____    ______ ____
ROOT
ATOM      1  C   UNL     1       2.705   6.758   0.000  0.00  0.00    +0.180 C 
ATOM      2  C   UNL     1       3.455   5.459   0.000  0.00  0.00    +0.177 C 
ATOM      5  C   UNL     1       2.705   4.160   0.000  0.00  0.00    +0.176 C 
ATOM      8  C   UNL     1       1.205   4.160   0.000  0.00  0.00    +0.176 C 
ATOM     11  C   UNL     1       0.455   5.459   0.000  0.00  0.00    +0.176 C 
ATOM     14  C   UNL     1       1.205   6.758   0.000  0.00  0.00    +0.177 C 
ENDROOT
BRANCH   2   3
ATOM      3  O   UNL     1       4.955   5.459   0.000  0.00  0.00    -0.386 OA
ATOM      4  H   UNL     1       5.440   4.619   0.000  0.00  0.00    +0.210 HD
ENDBRANCH   2   3
BRANCH   5   6
ATOM      6  O   UNL     1       3.455   2.861   0.000  0.00  0.00    -0.386 OA
ATOM      7  H   UNL     1       2.970   2.021   0.000  0.00  0.00    +0.210 HD
ENDBRANCH   5   6
BRANCH   8   9
ATOM      9  O   UNL     1       0.455   2.861   0.000  0.00  0.00    -0.386 OA
ATOM     10  H   UNL     1      -0.515   2.861   0.000  0.00  0.00    +0.210 HD
ENDBRANCH   8   9
BRANCH  11  12
ATOM     12  O   UNL     1      -1.045   5.459   0.000  0.00  0.00    -0.386 OA
ATOM     13  H   UNL     1      -1.530   6.299   0.000  0.00  0.00    +0.210 HD
ENDBRANCH  11  12
BRANCH  14  15
ATOM     15  O   UNL     1       0.455   8.057   0.000  0.00  0.00    -0.386 OA
ATOM     16  H   UNL     1       0.940   8.897   0.000  0.00  0.00    +0.210 HD
ENDBRANCH  14  15
BRANCH   1  17
ATOM     17  O   UNL     1       3.455   8.057   0.000  0.00  0.00    -0.374 OA
ATOM     18  C   UNL     1       4.955   8.057   0.000  0.00  0.00    +0.194 C 
ENDBRANCH   1  17
TORSDOF 6