REMARK  Name = NSC 785155
REMARK  7 active torsions:
REMARK  status: ('A' for Active; 'I' for Inactive)
REMARK    1  A    between atoms: C_1  and  N_2
REMARK    2  A    between atoms: C_15  and  O_16
REMARK    3  A    between atoms: O_16  and  C_17
REMARK    4  A    between atoms: C_18  and  O_19
REMARK    5  A    between atoms: O_19  and  C_20
REMARK    6  A    between atoms: C_21  and  O_22
REMARK    7  A    between atoms: O_22  and  C_23
REMARK                            x       y       z     vdW  Elec       q    Type
REMARK                         _______ _______ _______ _____ _____    ______ ____
ROOT
ATOM      1  C   UNL     1       0.482 -10.753   0.000  0.00  0.00    +0.129 C 
ATOM      2  N   UNL     1       0.482  -9.253   0.000  0.00  0.00    -0.332 N 
ATOM      3  C   UNL     1       1.781  -8.503   0.000  0.00  0.00    +0.109 C 
ATOM      4  C   UNL     1       1.781  -7.003   0.000  0.00  0.00    +0.055 C 
ATOM      5  C   UNL     1       0.481  -6.253   0.000  0.00  0.00    -0.033 A 
ATOM      6  C   UNL     1       0.481  -4.753   0.000  0.00  0.00    +0.054 A 
ATOM      7  C   UNL     1      -0.818  -4.003   0.000  0.00  0.00    +0.167 A 
ATOM      8  O   UNL     1      -1.129  -2.536   0.000  0.00  0.00    -0.453 OA
ATOM      9  C   UNL     1      -2.621  -2.379   0.000  0.00  0.00    +0.466 C 
ATOM     10  O   UNL     1      -3.231  -3.750   0.000  0.00  0.00    -0.452 OA
ATOM     11  C   UNL     1      -2.116  -4.753   0.000  0.00  0.00    +0.175 A 
ATOM     12  C   UNL     1      -2.116  -6.253   0.000  0.00  0.00    +0.038 A 
ATOM     13  C   UNL     1      -3.416  -7.003   0.000  0.00  0.00    +0.001 A 
ATOM     14  C   UNL     1      -4.715  -6.253   0.000  0.00  0.00    +0.059 A 
ATOM     15  C   UNL     1      -6.014  -7.003   0.000  0.00  0.00    +0.166 A 
ATOM     18  C   UNL     1      -6.014  -8.503   0.000  0.00  0.00    +0.204 A 
ATOM     21  C   UNL     1      -4.715  -9.253   0.000  0.00  0.00    +0.173 A 
ATOM     24  C   UNL     1      -3.416  -8.503   0.000  0.00  0.00    +0.030 A 
ATOM     25  C   UNL     1      -2.116  -9.253   0.000  0.00  0.00    +0.036 A 
ATOM     26  C   UNL     1      -0.818  -7.003   0.000  0.00  0.00    +0.011 A 
ATOM     27  C   UNL     1      -0.818  -8.503   0.000  0.00  0.00    +0.038 A 
ENDROOT
BRANCH  15  16
ATOM     16  O   UNL     1      -7.313  -6.253   0.000  0.00  0.00    -0.491 OA
ATOM     17  C   UNL     1      -8.612  -7.003   0.000  0.00  0.00    +0.277 C 
ENDBRANCH  15  16
BRANCH  18  19
ATOM     19  O   UNL     1      -7.313  -9.253   0.000  0.00  0.00    -0.488 OA
ATOM     20  C   UNL     1      -8.612  -8.503   0.000  0.00  0.00    +0.277 C 
ENDBRANCH  18  19
BRANCH  21  22
ATOM     22  O   UNL     1      -4.715 -10.753   0.000  0.00  0.00    -0.491 OA
ATOM     23  C   UNL     1      -6.014 -11.503   0.000  0.00  0.00    +0.277 C 
ENDBRANCH  21  22
TORSDOF 3