REMARK  Name = NSC 407308
REMARK  11 active torsions:
REMARK  status: ('A' for Active; 'I' for Inactive)
REMARK    1  A    between atoms: C_2  and  C_3
REMARK    2  A    between atoms: C_3  and  O_4
REMARK    3  A    between atoms: C_5  and  O_6
REMARK    4  A    between atoms: C_7  and  O_8
REMARK    5  A    between atoms: C_9  and  O_10
REMARK    6  A    between atoms: C_11  and  O_12
REMARK    7  A    between atoms: O_12  and  C_13
REMARK    8  A    between atoms: C_15  and  O_16
REMARK    9  A    between atoms: O_16  and  C_17
REMARK   10  A    between atoms: C_21  and  C_25
REMARK   11  A    between atoms: C_28  and  O_29
REMARK                            x       y       z     vdW  Elec       q    Type
REMARK                         _______ _______ _______ _____ _____    ______ ____
ROOT
ATOM     17  C   UNL     1      -0.375 -11.150   0.000  0.00  0.00    +0.141 A 
ATOM     18  C   UNL     1      -1.674 -10.400   0.000  0.00  0.00    +0.092 A 
ATOM     19  C   UNL     1      -1.674  -8.899   0.000  0.00  0.00    +0.127 A 
ATOM     22  C   UNL     1      -0.375  -8.149   0.000  0.00  0.00    +0.092 A 
ATOM     23  C   UNL     1       0.924  -8.899   0.000  0.00  0.00    +0.139 A 
ATOM     24  O   UNL     1       2.223  -8.149   0.000  0.00  0.00    -0.483 OA
ATOM     25  C   UNL     1       3.522  -8.899   0.000  0.00  0.00    +0.211 C 
ATOM     26  C   UNL     1       3.522 -10.400   0.000  0.00  0.00    +0.129 C 
ATOM     27  C   UNL     1       2.223 -11.150   0.000  0.00  0.00    +0.174 C 
ATOM     28  O   UNL     1       2.223 -12.650   0.000  0.00  0.00    -0.292 OA
ATOM     37  C   UNL     1       0.924 -10.400   0.000  0.00  0.00    +0.101 A 
ENDROOT
BRANCH  25  29
ATOM     29  C   UNL     1       4.821  -8.149   0.000  0.00  0.00    -0.007 A 
ATOM     30  C   UNL     1       6.120  -8.899   0.000  0.00  0.00    +0.011 A 
ATOM     31  C   UNL     1       7.419  -8.149   0.000  0.00  0.00    +0.046 A 
ATOM     32  C   UNL     1       7.419  -6.649   0.000  0.00  0.00    +0.117 A 
ATOM     35  C   UNL     1       6.120  -5.899   0.000  0.00  0.00    +0.046 A 
ATOM     36  C   UNL     1       4.821  -6.649   0.000  0.00  0.00    +0.011 A 
BRANCH  32  33
ATOM     33  O   UNL     1       8.718  -5.899   0.000  0.00  0.00    -0.507 OA
ATOM     34  H   UNL     1       9.530  -6.368   0.000  0.00  0.00    +0.292 HD
ENDBRANCH  32  33
ENDBRANCH  25  29
BRANCH  19  20
ATOM     20  O   UNL     1      -2.973  -8.149   0.000  0.00  0.00    -0.495 OA
ATOM     21  C   UNL     1      -4.272  -8.899   0.000  0.00  0.00    +0.277 C 
ENDBRANCH  19  20
BRANCH  17  16
ATOM     16  O   UNL     1      -0.375 -12.650   0.000  0.00  0.00    -0.460 OA
BRANCH  16  15
ATOM      1  O   UNL     1      -1.674 -14.900   0.000  0.00  0.00    -0.331 OA
ATOM      2  C   UNL     1      -2.973 -15.650   0.000  0.00  0.00    +0.179 C 
ATOM      6  C   UNL     1      -4.272 -14.900   0.000  0.00  0.00    +0.177 C 
ATOM      9  C   UNL     1      -4.272 -13.400   0.000  0.00  0.00    +0.180 C 
ATOM     12  C   UNL     1      -2.973 -12.650   0.000  0.00  0.00    +0.214 C 
ATOM     15  C   UNL     1      -1.674 -13.400   0.000  0.00  0.00    +0.339 C 
BRANCH   6   7
ATOM      7  O   UNL     1      -5.571 -15.650   0.000  0.00  0.00    -0.386 OA
ATOM      8  H   UNL     1      -6.411 -15.165   0.000  0.00  0.00    +0.210 HD
ENDBRANCH   6   7
BRANCH   9  10
ATOM     10  O   UNL     1      -5.571 -12.650   0.000  0.00  0.00    -0.386 OA
ATOM     11  H   UNL     1      -5.571 -11.680   0.000  0.00  0.00    +0.210 HD
ENDBRANCH   9  10
BRANCH  12  13
ATOM     13  O   UNL     1      -2.973 -11.150   0.000  0.00  0.00    -0.383 OA
ATOM     14  H   UNL     1      -2.133 -10.665   0.000  0.00  0.00    +0.210 HD
ENDBRANCH  12  13
BRANCH   2   3
ATOM      3  C   UNL     1      -2.973 -17.150   0.000  0.00  0.00    +0.190 C 
BRANCH   3   4
ATOM      4  O   UNL     1      -1.674 -17.900   0.000  0.00  0.00    -0.392 OA
ATOM      5  H   UNL     1      -1.674 -18.869   0.000  0.00  0.00    +0.210 HD
ENDBRANCH   3   4
ENDBRANCH   2   3
ENDBRANCH  16  15
ENDBRANCH  17  16
TORSDOF 10