REMARK  Name = NSC 361902
REMARK  3 active torsions:
REMARK  status: ('A' for Active; 'I' for Inactive)
REMARK    1  A    between atoms: C_3  and  C_4
REMARK    2  A    between atoms: C_14  and  C_15
REMARK    3  A    between atoms: C_16  and  O_17
REMARK                            x       y       z     vdW  Elec       q    Type
REMARK                         _______ _______ _______ _____ _____    ______ ____
ROOT
ATOM      1  C   UNL     1       2.772   1.251   0.000  0.00  0.00    +0.078 C 
ATOM      2  C   UNL     1       3.040  -0.225   0.000  0.00  0.00    +0.142 C 
ATOM      3  C   UNL     1       4.526  -0.426   0.000  0.00  0.00    +0.056 C 
ATOM      4  C   UNL     1       3.644  -1.640   0.000  0.00  0.00    +0.022 C 
ATOM      5  C   UNL     1       5.177  -1.778   0.000  0.00  0.00    +0.029 C 
ATOM      6  C   UNL     1       6.639  -2.111   0.000  0.00  0.00    +0.067 C 
ATOM      7  C   UNL     1       7.166  -3.516   0.000  0.00  0.00    +0.036 C 
ATOM      8  C   UNL     1       6.340  -4.768   0.000  0.00  0.00    +0.020 C 
ATOM      9  C   UNL     1       8.665  -3.448   0.000  0.00  0.00    +0.335 C 
ATOM     10  O   UNL     1       9.600  -4.621   0.000  0.00  0.00    -0.245 OA
ATOM     11  O   UNL     1       9.064  -2.002   0.000  0.00  0.00    -0.457 OA
ATOM     12  C   UNL     1       7.812  -1.176   0.000  0.00  0.00    +0.185 C 
ATOM     13  C   UNL     1       7.812   0.324   0.000  0.00  0.00    +0.051 C 
ATOM     14  C   UNL     1       6.639   1.259   0.000  0.00  0.00    +0.022 C 
ATOM     15  C   UNL     1       6.973   2.722   0.000  0.00  0.00    +0.010 C 
ATOM     16  C   UNL     1       5.177   0.925   0.000  0.00  0.00    +0.081 C 
ATOM     19  O   UNL     1       2.003  -1.309   0.000  0.00  0.00    -0.297 OA
ATOM     20  C   UNL     1       4.093   1.962   0.000  0.00  0.00    +0.043 C 
ENDROOT
BRANCH  16  17
ATOM     17  O   UNL     1       5.576   2.371   0.000  0.00  0.00    -0.387 OA
ATOM     18  H   UNL     1       6.515   2.615   0.000  0.00  0.00    +0.210 HD
ENDBRANCH  16  17
TORSDOF 1