REMARK  Name = NSC 36407
REMARK  8 active torsions:
REMARK  status: ('A' for Active; 'I' for Inactive)
REMARK    1  A    between atoms: C_4  and  C_5
REMARK    2  A    between atoms: C_7  and  O_8
REMARK    3  A    between atoms: O_8  and  C_9
REMARK    4  A    between atoms: C_10  and  O_11
REMARK    5  A    between atoms: O_11  and  C_12
REMARK    6  A    between atoms: C_13  and  O_14
REMARK    7  A    between atoms: O_14  and  C_15
REMARK    8  A    between atoms: C_26  and  O_27
REMARK                            x       y       z     vdW  Elec       q    Type
REMARK                         _______ _______ _______ _____ _____    ______ ____
ROOT
ATOM      1  O   UNL     1      -1.864  -1.387   0.000  0.00  0.00    -0.250 OA
ATOM      2  C   UNL     1      -1.837   0.113   0.000  0.00  0.00    +0.312 C 
ATOM      3  C   UNL     1      -0.608   0.973   0.000  0.00  0.00    +0.118 C 
ATOM      4  C   UNL     1       0.853   0.634   0.000  0.00  0.00    +0.064 C 
ATOM     17  C   UNL     1       1.877   1.731   0.000  0.00  0.00    -0.030 A 
ATOM     18  C   UNL     1       3.338   1.393   0.000  0.00  0.00    +0.054 A 
ATOM     19  C   UNL     1       4.362   2.489   0.000  0.00  0.00    +0.167 A 
ATOM     20  C   UNL     1       3.924   3.924   0.000  0.00  0.00    +0.167 A 
ATOM     21  C   UNL     1       2.463   4.262   0.000  0.00  0.00    +0.056 A 
ATOM     22  O   UNL     1       5.154   4.783   0.000  0.00  0.00    -0.453 OA
ATOM     23  C   UNL     1       6.351   3.880   0.000  0.00  0.00    +0.466 C 
ATOM     24  O   UNL     1       5.862   2.462   0.000  0.00  0.00    -0.453 OA
ATOM     25  C   UNL     1       1.439   3.166   0.000  0.00  0.00    -0.011 A 
ATOM     26  C   UNL     1      -0.022   3.504   0.000  0.00  0.00    +0.152 C 
ATOM     29  C   UNL     1      -1.046   2.407   0.000  0.00  0.00    +0.074 C 
ATOM     30  C   UNL     1      -2.546   2.434   0.000  0.00  0.00    +0.239 C 
ATOM     31  O   UNL     1      -3.035   1.017   0.000  0.00  0.00    -0.464 OA
ENDROOT
BRANCH   4   5
ATOM      5  C   UNL     1      -0.745  -3.124   0.000  0.00  0.00    -0.032 A 
ATOM      6  C   UNL     1       0.157  -4.322   0.000  0.00  0.00    +0.054 A 
ATOM      7  C   UNL     1      -0.429  -5.703   0.000  0.00  0.00    +0.165 A 
ATOM     10  C   UNL     1      -1.919  -5.885   0.000  0.00  0.00    +0.204 A 
ATOM     13  C   UNL     1      -2.820  -4.686   0.000  0.00  0.00    +0.165 A 
ATOM     16  C   UNL     1      -2.233  -3.306   0.000  0.00  0.00    +0.054 A 
BRANCH   7   8
ATOM      8  O   UNL     1       0.472  -6.901   0.000  0.00  0.00    -0.491 OA
ATOM      9  C   UNL     1       1.961  -6.719   0.000  0.00  0.00    +0.277 C 
ENDBRANCH   7   8
BRANCH  10  11
ATOM     11  O   UNL     1      -2.505  -7.265   0.000  0.00  0.00    -0.488 OA
ATOM     12  C   UNL     1      -3.994  -7.447   0.000  0.00  0.00    +0.277 C 
ENDBRANCH  10  11
BRANCH  13  14
ATOM     14  O   UNL     1      -4.309  -4.868   0.000  0.00  0.00    -0.491 OA
ATOM     15  C   UNL     1      -5.211  -3.670   0.000  0.00  0.00    +0.277 C 
ENDBRANCH  13  14
ENDBRANCH   4   5
BRANCH  26  27
ATOM     27  O   UNL     1      -1.119   4.527   0.000  0.00  0.00    -0.387 OA
ATOM     28  H   UNL     1      -0.900   5.473   0.000  0.00  0.00    +0.210 HD
ENDBRANCH  26  27
TORSDOF 5