REMARK  Name = NSC 156236
REMARK  3 active torsions:
REMARK  status: ('A' for Active; 'I' for Inactive)
REMARK    1  A    between atoms: C_2  and  C_3
REMARK    2  A    between atoms: C_9  and  C_10
REMARK    3  A    between atoms: C_14  and  C_15
REMARK                            x       y       z     vdW  Elec       q    Type
REMARK                         _______ _______ _______ _____ _____    ______ ____
ROOT
ATOM      1  C   UNL     1      -3.114   1.281   0.000  0.00  0.00    +0.051 C 
ATOM      2  C   UNL     1      -2.423  -0.051   0.000  0.00  0.00    -0.058 C 
ATOM      3  C   UNL     1      -3.094  -1.392   0.000  0.00  0.00    +0.040 C 
ATOM      4  C   UNL     1      -0.943   0.195   0.000  0.00  0.00    +0.089 C 
ATOM      5  C   UNL     1       0.077  -0.904   0.000  0.00  0.00    +0.192 C 
ATOM      6  O   UNL     1      -0.278  -2.362   0.000  0.00  0.00    -0.460 OA
ATOM      7  C   UNL     1       0.998  -3.150   0.000  0.00  0.00    +0.311 C 
ATOM      8  O   UNL     1       1.110  -4.646   0.000  0.00  0.00    -0.251 OA
ATOM      9  C   UNL     1       2.142  -2.180   0.000  0.00  0.00    +0.101 C 
ATOM     10  C   UNL     1       3.599  -2.536   0.000  0.00  0.00    +0.019 C 
ATOM     11  C   UNL     1       1.573  -0.792   0.000  0.00  0.00    +0.044 C 
ATOM     12  C   UNL     1       2.418   0.447   0.000  0.00  0.00    +0.012 C 
ATOM     13  C   UNL     1       1.976   1.881   0.000  0.00  0.00    +0.031 C 
ATOM     14  C   UNL     1       0.580   2.428   0.000  0.00  0.00    -0.065 C 
ATOM     15  C   UNL     1       0.467   3.924   0.000  0.00  0.00    +0.039 C 
ATOM     16  C   UNL     1      -0.720   1.678   0.000  0.00  0.00    +0.009 C 
ATOM     17  C   UNL     1      -2.061   2.349   0.000  0.00  0.00    +0.183 C 
ATOM     18  O   UNL     1      -2.307   3.829   0.000  0.00  0.00    -0.288 OA
ENDROOT
TORSDOF 0