REMARK  Name = NSC 12097
REMARK  1 active torsions:
REMARK  status: ('A' for Active; 'I' for Inactive)
REMARK    1  A    between atoms: C_4  and  O_5
REMARK                            x       y       z     vdW  Elec       q    Type
REMARK                         _______ _______ _______ _____ _____    ______ ____
ROOT
ATOM      1  O   UNL     1       5.946   0.750   0.000  0.00  0.00    -0.452 OA
ATOM      2  C   UNL     1       4.647   1.500   0.000  0.00  0.00    +0.157 A 
ATOM      3  C   UNL     1       3.348   0.750   0.000  0.00  0.00    +0.093 A 
ATOM      4  C   UNL     1       2.049   1.500   0.000  0.00  0.00    +0.120 A 
ATOM      7  C   UNL     1       2.049   3.000   0.000  0.00  0.00    +0.048 A 
ATOM      8  C   UNL     1       3.348   3.750   0.000  0.00  0.00    +0.035 A 
ATOM      9  C   UNL     1       4.647   3.000   0.000  0.00  0.00    +0.107 A 
ATOM     10  N   UNL     1       5.946   3.750   0.000  0.00  0.00    -0.241 NA
ATOM     11  C   UNL     1       7.245   3.000   0.000  0.00  0.00    +0.107 A 
ATOM     12  C   UNL     1       8.544   3.750   0.000  0.00  0.00    +0.035 A 
ATOM     13  C   UNL     1       9.843   3.000   0.000  0.00  0.00    +0.053 A 
ATOM     14  C   UNL     1       9.843   1.500   0.000  0.00  0.00    +0.183 A 
ATOM     15  C   UNL     1       8.544   0.750   0.000  0.00  0.00    +0.099 A 
ATOM     16  O   UNL     1      11.142   0.750   0.000  0.00  0.00    -0.288 OA
ATOM     17  C   UNL     1       7.245   1.500   0.000  0.00  0.00    +0.157 A 
ENDROOT
BRANCH   4   5
ATOM      5  O   UNL     1       0.750   0.750   0.000  0.00  0.00    -0.507 OA
ATOM      6  H   UNL     1      -0.061   1.218   0.000  0.00  0.00    +0.292 HD
ENDBRANCH   4   5
TORSDOF 1