REMARK  Name = NSC 42038
REMARK  4 active torsions:
REMARK  status: ('A' for Active; 'I' for Inactive)
REMARK    1  A    between atoms: C_4  and  C_5
REMARK    2  A    between atoms: N_9  and  O_10
REMARK    3  A    between atoms: C_13  and  C_14
REMARK    4  A    between atoms: C_16  and  C_17
REMARK                            x       y       z     vdW  Elec       q    Type
REMARK                         _______ _______ _______ _____ _____    ______ ____
ROOT
ATOM      1  C   UNL     1       2.776   7.005   0.000  0.00  0.00    +0.208 C 
ATOM      2  C   UNL     1       1.661   6.001   0.000  0.00  0.00    -0.015 C 
ATOM      3  C   UNL     1       1.973   4.534   0.000  0.00  0.00    +0.011 C 
ATOM      4  C   UNL     1       2.285   3.067   0.000  0.00  0.00    +0.020 C 
ATOM      5  C   UNL     1       0.858   3.530   0.000  0.00  0.00    -0.014 C 
ATOM      6  C   UNL     1      -0.568   3.994   0.000  0.00  0.00    +0.028 C 
ATOM      7  C   UNL     1      -0.880   5.461   0.000  0.00  0.00    +0.105 C 
ATOM      8  N   UNL     1      -2.307   5.924   0.000  0.00  0.00    -0.087 NA
ATOM     11  C   UNL     1       3.400   4.070   0.000  0.00  0.00    +0.015 C 
ATOM     12  C   UNL     1       4.514   5.074   0.000  0.00  0.00    +0.009 C 
ATOM     13  C   UNL     1       0.235   6.465   0.000  0.00  0.00    -0.018 C 
ATOM     14  C   UNL     1      -0.077   7.932   0.000  0.00  0.00    +0.046 C 
ATOM     15  C   UNL     1       4.202   6.541   0.000  0.00  0.00    +0.048 C 
ATOM     16  C   UNL     1       5.084   7.755   0.000  0.00  0.00    +0.102 C 
ATOM     17  C   UNL     1       6.584   7.755   0.000  0.00  0.00    +0.019 C 
ATOM     18  C   UNL     1       4.202   8.968   0.000  0.00  0.00    +0.311 C 
ATOM     19  O   UNL     1       4.666  10.395   0.000  0.00  0.00    -0.251 OA
ATOM     20  O   UNL     1       2.776   8.505   0.000  0.00  0.00    -0.456 OA
ENDROOT
BRANCH   8   9
ATOM      9  O   UNL     1      -3.421   4.921   0.000  0.00  0.00    -0.409 OA
ATOM     10  H   UNL     1      -4.313   5.210   0.000  0.00  0.00    +0.328 HD
ENDBRANCH   8   9
TORSDOF 1