REMARK  Name = NSC 785182#2
REMARK  0 active torsions:
REMARK  status: ('A' for Active; 'I' for Inactive)
REMARK                            x       y       z     vdW  Elec       q    Type
REMARK                         _______ _______ _______ _____ _____    ______ ____
ROOT
ATOM      1 BR   UNL     1      -1.025  -0.274   0.000  0.00  0.00    -0.113 Br
ATOM      2  H   UNL     1       0.485  -0.274   0.000  0.00  0.00    +0.113 HD
ENDROOT
TORSDOF 0