REMARK  Name = NSC 102816
REMARK  5 active torsions:
REMARK  status: ('A' for Active; 'I' for Inactive)
REMARK    1  A    between atoms: N_7  and  C1*_8
REMARK    2  A    between atoms: C2*_9  and  O2*_10
REMARK    3  A    between atoms: C3*_11  and  O3*_12
REMARK    4  A    between atoms: C4*_13  and  C5*_14
REMARK    5  A    between atoms: C5*_14  and  O5*_15
REMARK                            x       y       z     vdW  Elec       q    Type
REMARK                         _______ _______ _______ _____ _____    ______ ____
ROOT
ATOM     10  C1* UNL     1      -5.594  -4.466   0.000  0.00  0.00    +0.256 C 
ATOM     11  C2* UNL     1      -6.028  -5.902   0.000  0.00  0.00    +0.195 C 
ATOM     14  C3* UNL     1      -7.528  -5.932   0.000  0.00  0.00    +0.178 C 
ATOM     17  C4* UNL     1      -8.020  -4.515   0.000  0.00  0.00    +0.177 C 
ATOM     21  O4* UNL     1      -6.825  -3.609   0.000  0.00  0.00    -0.346 OA
ENDROOT
BRANCH  10   9
ATOM      1  N   UNL     1      -2.478  -2.008   0.000  0.00  0.00    -0.205 NA
ATOM      2  C   UNL     1      -1.343  -2.988   0.000  0.00  0.00    +0.218 A 
ATOM      3  N   UNL     1       0.074  -2.496   0.000  0.00  0.00    -0.327 N 
ATOM      4  H   UNL     1       0.259  -1.529   0.000  0.00  0.00    +0.145 HD
ATOM      5  H   UNL     1       0.818  -3.140   0.000  0.00  0.00    +0.145 HD
ATOM      6  N   UNL     1      -1.625  -4.462   0.000  0.00  0.00    -0.159 NA
ATOM      7  C   UNL     1      -3.042  -4.954   0.000  0.00  0.00    +0.355 A 
ATOM      8  O   UNL     1      -3.324  -6.427   0.000  0.00  0.00    -0.244 OA
ATOM      9  N   UNL     1      -4.177  -3.973   0.000  0.00  0.00    -0.253 N 
ATOM     22  C   UNL     1      -3.895  -2.500   0.000  0.00  0.00    +0.209 A 
ENDBRANCH  10   9
BRANCH  11  12
ATOM     12  O2* UNL     1      -5.122  -7.097   0.000  0.00  0.00    -0.385 OA
ATOM     13  H2* UNL     1      -5.498  -7.991   0.000  0.00  0.00    +0.210 HD
ENDBRANCH  11  12
BRANCH  14  15
ATOM     15  O3* UNL     1      -8.385  -7.163   0.000  0.00  0.00    -0.386 OA
ATOM     16  H3* UNL     1      -9.351  -7.082   0.000  0.00  0.00    +0.210 HD
ENDBRANCH  14  15
BRANCH  17  18
ATOM     18  C5* UNL     1      -9.456  -4.081   0.000  0.00  0.00    +0.190 C 
BRANCH  18  19
ATOM     19  O5* UNL     1     -10.550  -5.107   0.000  0.00  0.00    -0.392 OA
ATOM     20  H5* UNL     1     -11.479  -4.826   0.000  0.00  0.00    +0.210 HD
ENDBRANCH  18  19
ENDBRANCH  17  18
TORSDOF 5