REMARK  Name = NSC 269756
REMARK  8 active torsions:
REMARK  status: ('A' for Active; 'I' for Inactive)
REMARK    1  A    between atoms: C_1  and  C_2
REMARK    2  A    between atoms: C_12  and  C_13
REMARK    3  A    between atoms: C_22  and  C_23
REMARK    4  A    between atoms: C_23  and  O_24
REMARK    5  A    between atoms: C_23  and  C_26
REMARK    6  A    between atoms: C_30  and  O_31
REMARK    7  A    between atoms: C_33  and  C_40
REMARK    8  A    between atoms: C_45  and  O_46
REMARK                            x       y       z     vdW  Elec       q    Type
REMARK                         _______ _______ _______ _____ _____    ______ ____
ROOT
ATOM      1  C   UNL     1       5.855   1.904   0.000  0.00  0.00    -0.046 C 
ATOM      2  C   UNL     1       4.556   2.654   0.000  0.00  0.00    +0.041 C 
ATOM      3  C   UNL     1       7.154   2.654   0.000  0.00  0.00    +0.006 C 
ATOM      4  C   UNL     1       8.453   1.904   0.000  0.00  0.00    +0.152 C 
ATOM      5  O   UNL     1       9.752   2.654   0.000  0.00  0.00    -0.366 OA
ATOM      6  C   UNL     1      11.051   1.904   0.000  0.00  0.00    +0.157 C 
ATOM      7  C   UNL     1      11.169   0.336   0.000  0.00  0.00    +0.128 C 
ATOM      8  C   UNL     1      12.037  -1.031   0.000  0.00  0.00    +0.199 C 
ATOM      9  O   UNL     1      12.787   0.268   0.000  0.00  0.00    -0.365 OA
ATOM     10  C   UNL     1       9.752  -0.346   0.000  0.00  0.00    +0.050 C 
ATOM     11  C   UNL     1       9.665  -1.843   0.000  0.00  0.00    +0.019 C 
ATOM     12  C   UNL     1      10.941   0.167   0.000  0.00  0.00    +0.189 C 
ATOM     13  O   UNL     1      12.350  -0.346   0.000  0.00  0.00    -0.458 OA
ATOM     14  C   UNL     1      13.650   0.404   0.000  0.00  0.00    +0.332 C 
ATOM     15  O   UNL     1      13.650   1.904   0.000  0.00  0.00    -0.246 OA
ATOM     16  C   UNL     1      14.948  -0.346   0.000  0.00  0.00    +0.091 C 
ATOM     17  C   UNL     1      14.948  -1.846   0.000  0.00  0.00    +0.007 C 
ATOM     18  C   UNL     1      13.650  -2.596   0.000  0.00  0.00    -0.001 C 
ATOM     19  C   UNL     1      13.650  -4.096   0.000  0.00  0.00    +0.007 C 
ATOM     20  C   UNL     1      12.350  -4.846   0.000  0.00  0.00    +0.169 C 
ATOM     25  O   UNL     1      11.051  -4.096   0.000  0.00  0.00    -0.367 OA
ATOM     26  C   UNL     1       9.752  -4.846   0.000  0.00  0.00    +0.195 C 
ATOM     27  C   UNL     1       8.453  -4.096   0.000  0.00  0.00    +0.175 C 
ATOM     30  C   UNL     1       7.154  -4.846   0.000  0.00  0.00    +0.132 C 
ATOM     31  C   UNL     1       5.855  -4.096   0.000  0.00  0.00    +0.261 C 
ATOM     32  C   UNL     1       5.855  -2.596   0.000  0.00  0.00    +0.339 C 
ATOM     33  O   UNL     1       7.154  -1.846   0.000  0.00  0.00    -0.462 OA
ATOM     34  C   UNL     1       7.154  -0.346   0.000  0.00  0.00    +0.242 C 
ATOM     35  O   UNL     1       4.556  -1.846   0.000  0.00  0.00    -0.248 OA
ATOM     36  C   UNL     1       7.904  -6.145   0.000  0.00  0.00    +0.048 C 
ATOM     37  O   UNL     1       5.855  -5.596   0.000  0.00  0.00    -0.350 OA
ATOM     38  C   UNL     1      12.448   2.452   0.000  0.00  0.00    +0.080 C 
ATOM     39  C   UNL     1       8.453   0.404   0.000  0.00  0.00    +0.049 C 
ATOM     40  C   UNL     1       7.265  -0.109   0.000  0.00  0.00    +0.049 C 
ATOM     41  C   UNL     1       5.855   0.404   0.000  0.00  0.00    +0.141 C 
ENDROOT
BRANCH  20  21
ATOM     21  C   UNL     1      12.351  -6.346   0.000  0.00  0.00    +0.144 C 
ATOM     24  C   UNL     1      13.650  -7.096   0.000  0.00  0.00    +0.040 C 
BRANCH  21  22
ATOM     22  O   UNL     1      10.851  -6.346   0.000  0.00  0.00    -0.389 OA
ATOM     23  H   UNL     1      10.366  -5.506   0.000  0.00  0.00    +0.210 HD
ENDBRANCH  21  22
ENDBRANCH  20  21
BRANCH  27  28
ATOM     28  O   UNL     1       8.453  -5.596   0.000  0.00  0.00    -0.387 OA
ATOM     29  H   UNL     1       7.613  -6.081   0.000  0.00  0.00    +0.210 HD
ENDBRANCH  27  28
BRANCH  41  42
ATOM     42  O   UNL     1       4.627  -0.456   0.000  0.00  0.00    -0.387 OA
ATOM     43  H   UNL     1       3.747  -0.046   0.000  0.00  0.00    +0.210 HD
ENDBRANCH  41  42
TORSDOF 4