REMARK  Name = NSC 255112
REMARK  15 active torsions:
REMARK  status: ('A' for Active; 'I' for Inactive)
REMARK    1  A    between atoms: O_1  and  C_2
REMARK    2  A    between atoms: O_1  and  C_3
REMARK    3  A    between atoms: C_11  and  C_12
REMARK    4  A    between atoms: C_16  and  O_35
REMARK    5  A    between atoms: C_17  and  O_18
REMARK    6  A    between atoms: O_18  and  C_19
REMARK    7  A    between atoms: C_22  and  C_23
REMARK    8  A    between atoms: C_25  and  C_26
REMARK    9  A    between atoms: C_27  and  O_28
REMARK   10  A    between atoms: C_29  and  O_33
REMARK   11  A    between atoms: C_31  and  C_32
REMARK   12  A    between atoms: O_33  and  C_34
REMARK   13  A    between atoms: O_35  and  C_36
REMARK   14  A    between atoms: C_38  and  C_39
REMARK   15  A    between atoms: N_40  and  N_41
REMARK                            x       y       z     vdW  Elec       q    Type
REMARK                         _______ _______ _______ _____ _____    ______ ____
ROOT
ATOM      3  C   UNL     1       9.348   5.749   0.000  0.00  0.00    +0.174 C 
ATOM      4  C   UNL     1       8.869   4.328   0.000  0.00  0.00    +0.047 C 
ATOM      5  C   UNL     1       9.861   3.202   0.000  0.00  0.00    +0.208 C 
ATOM      6  O   UNL     1       9.382   1.781   0.000  0.00  0.00    -0.285 OA
ATOM      7  C   UNL     1      11.331   3.498   0.000  0.00  0.00    +0.094 C 
ATOM      8  N   UNL     1      12.586   2.676   0.000  0.00  0.00    -0.278 N 
ATOM      9  H   UNL     1      11.839   1.375   0.000  0.00  0.00    +0.155 HD
ATOM     10  C   UNL     1      13.928   2.008   0.000  0.00  0.00    +0.244 C 
ATOM     11  C   UNL     1      14.415   0.589   0.000  0.00  0.00    +0.012 C 
ATOM     12  C   UNL     1      13.438  -0.549   0.000  0.00  0.00    +0.049 C 
ATOM     13  C   UNL     1      15.891   0.324   0.000  0.00  0.00    +0.008 C 
ATOM     14  C   UNL     1      16.206  -1.143   0.000  0.00  0.00    -0.001 C 
ATOM     15  C   UNL     1      15.400  -2.408   0.000  0.00  0.00    +0.008 C 
ATOM     16  C   UNL     1      13.924  -2.142   0.000  0.00  0.00    +0.186 C 
ATOM     17  C   UNL     1      14.008  -3.640   0.000  0.00  0.00    +0.236 C 
ATOM     24  C   UNL     1      12.688  -4.353   0.000  0.00  0.00    -0.033 C 
ATOM     25  C   UNL     1      12.582  -5.849   0.000  0.00  0.00    +0.042 C 
ATOM     26  C   UNL     1      11.482  -3.461   0.000  0.00  0.00    -0.019 C 
ATOM     27  C   UNL     1       9.982  -3.442   0.000  0.00  0.00    +0.040 C 
ATOM     28  C   UNL     1       9.395  -4.822   0.000  0.00  0.00    +0.014 C 
ATOM     29  C   UNL     1       8.928  -2.375   0.000  0.00  0.00    +0.150 C 
ATOM     32  C   UNL     1       7.755  -1.440   0.000  0.00  0.00    +0.147 C 
ATOM     33  C   UNL     1       7.578   0.050   0.000  0.00  0.00    +0.037 C 
ATOM     34  C   UNL     1       6.190   0.620   0.000  0.00  0.00    -0.007 C 
ATOM     35  C   UNL     1       4.944  -0.216   0.000  0.00  0.00    +0.008 C 
ATOM     40  O   UNL     1      15.057   2.997   0.000  0.00  0.00    -0.270 OA
ATOM     41  C   UNL     1      11.810   4.920   0.000  0.00  0.00    +0.070 C 
ATOM     50  C   UNL     1       6.190   2.119   0.000  0.00  0.00    +0.046 C 
ATOM     51  C   UNL     1      10.818   6.045   0.000  0.00  0.00    +0.231 C 
ATOM     52  O   UNL     1      11.297   7.467   0.000  0.00  0.00    -0.283 OA
ENDROOT
BRANCH   3   1
ATOM      1  O   UNL     1       8.356   6.875   0.000  0.00  0.00    -0.491 OA
ATOM      2  C   UNL     1       6.885   6.579   0.000  0.00  0.00    +0.277 C 
ENDBRANCH   3   1
BRANCH  29  30
ATOM     30  O   UNL     1       7.925  -3.490   0.000  0.00  0.00    -0.389 OA
ATOM     31  H   UNL     1       6.976  -3.289   0.000  0.00  0.00    +0.210 HD
ENDBRANCH  29  30
BRANCH  32  36
ATOM     36  O   UNL     1       6.445  -2.169   0.000  0.00  0.00    -0.377 OA
ATOM     37  C   UNL     1       5.157  -1.399   0.000  0.00  0.00    +0.194 C 
ENDBRANCH  32  36
BRANCH  16  38
ATOM     38  O   UNL     1      12.605  -1.427   0.000  0.00  0.00    -0.372 OA
ATOM     39  C   UNL     1      12.566   0.072   0.000  0.00  0.00    +0.195 C 
ENDBRANCH  16  38
BRANCH  41  42
ATOM     42  C   UNL     1      13.280   5.216   0.000  0.00  0.00    +0.144 C 
ATOM     43  N   UNL     1      14.272   4.091   0.000  0.00  0.00    -0.192 NA
BRANCH  43  44
ATOM     44  N   UNL     1      15.742   4.387   0.000  0.00  0.00    -0.251 N 
ATOM     45  C   UNL     1      16.734   3.262   0.000  0.00  0.00    +0.154 C 
ATOM     46  C   UNL     1      18.205   3.558   0.000  0.00  0.00    +0.180 C 
ATOM     47  O   UNL     1      18.683   4.979   0.000  0.00  0.00    -0.377 OA
ATOM     48  C   UNL     1      17.692   6.105   0.000  0.00  0.00    +0.180 C 
ATOM     49  C   UNL     1      16.221   5.809   0.000  0.00  0.00    +0.154 C 
ENDBRANCH  43  44
ENDBRANCH  41  42
BRANCH  17  18
ATOM     18  O   UNL     1      15.317  -4.372   0.000  0.00  0.00    -0.440 OA
BRANCH  18  19
ATOM     19  C   UNL     1      16.606  -3.604   0.000  0.00  0.00    +0.398 C 
ATOM     20  N   UNL     1      16.585  -2.104   0.000  0.00  0.00    -0.295 N 
ATOM     21  H   UNL     1      15.725  -1.624   0.000  0.00  0.00    +0.148 HD
ATOM     22  H   UNL     1      17.430  -1.600   0.000  0.00  0.00    +0.148 HD
ATOM     23  O   UNL     1      17.915  -4.336   0.000  0.00  0.00    -0.227 OA
ENDBRANCH  18  19
ENDBRANCH  17  18
TORSDOF 8