REMARK  Name = NSC 114341
REMARK  5 active torsions:
REMARK  status: ('A' for Active; 'I' for Inactive)
REMARK    1  A    between atoms: C_2  and  C_3
REMARK    2  A    between atoms: C_10  and  O_11
REMARK    3  A    between atoms: O_11  and  C_12
REMARK    4  A    between atoms: C_14  and  C_15
REMARK    5  A    between atoms: N_16  and  O_17
REMARK                            x       y       z     vdW  Elec       q    Type
REMARK                         _______ _______ _______ _____ _____    ______ ____
ROOT
ATOM      1  N   UNL     1      -2.873  -7.024   0.000  0.00  0.00    -0.244 NA
ATOM      2  C   UNL     1      -2.873  -5.524   0.000  0.00  0.00    +0.093 A 
ATOM      9  C   UNL     1      -4.172  -4.774   0.000  0.00  0.00    +0.075 A 
ATOM     10  C   UNL     1      -5.471  -5.524   0.000  0.00  0.00    +0.124 A 
ATOM     13  C   UNL     1      -5.471  -7.024   0.000  0.00  0.00    +0.075 A 
ATOM     14  C   UNL     1      -4.172  -7.774   0.000  0.00  0.00    +0.089 A 
ENDROOT
BRANCH   2   3
ATOM      3  C   UNL     1      -1.574  -4.774   0.000  0.00  0.00    +0.089 A 
ATOM      4  C   UNL     1      -0.275  -5.524   0.000  0.00  0.00    +0.030 A 
ATOM      5  C   UNL     1       1.025  -4.774   0.000  0.00  0.00    +0.004 A 
ATOM      6  C   UNL     1       1.025  -3.275   0.000  0.00  0.00    +0.020 A 
ATOM      7  C   UNL     1      -0.275  -2.525   0.000  0.00  0.00    +0.111 A 
ATOM      8  N   UNL     1      -1.574  -3.275   0.000  0.00  0.00    -0.253 NA
ENDBRANCH   2   3
BRANCH  10  11
ATOM     11  O   UNL     1      -6.770  -4.774   0.000  0.00  0.00    -0.495 OA
ATOM     12  C   UNL     1      -8.069  -5.524   0.000  0.00  0.00    +0.277 C 
ENDBRANCH  10  11
BRANCH  14  15
ATOM     15  C   UNL     1      -4.172  -9.274   0.000  0.00  0.00    +0.180 C 
ATOM     16  N   UNL     1      -2.873 -10.025   0.000  0.00  0.00    -0.093 NA
BRANCH  16  17
ATOM     17  O   UNL     1      -1.574  -9.274   0.000  0.00  0.00    -0.409 OA
ATOM     18  H   UNL     1      -0.762  -9.743   0.000  0.00  0.00    +0.328 HD
ENDBRANCH  16  17
ENDBRANCH  14  15
TORSDOF 4