REMARK  Name = NSC 122750
REMARK  13 active torsions:
REMARK  status: ('A' for Active; 'I' for Inactive)
REMARK    1  A    between atoms: C_5  and  C_6
REMARK    2  A    between atoms: C_8  and  O_9
REMARK    3  A    between atoms: O_9  and  C_10
REMARK    4  A    between atoms: C_11  and  O_12
REMARK    5  A    between atoms: C_13  and  C_14
REMARK    6  A    between atoms: C_16  and  C_17
REMARK    7  A    between atoms: C_18  and  O_19
REMARK    8  A    between atoms: O_19  and  C_20
REMARK    9  A    between atoms: C_23  and  O_24
REMARK   10  A    between atoms: O_24  and  C_25
REMARK   11  A    between atoms: C_29  and  C_30
REMARK   12  A    between atoms: C_35  and  O_36
REMARK   13  A    between atoms: O_36  and  C_37
REMARK                            x       y       z     vdW  Elec       q    Type
REMARK                         _______ _______ _______ _____ _____    ______ ____
ROOT
ATOM      1  O   UNL     1       9.092  -1.591   0.000  0.00  0.00    -0.286 OA
ATOM      2  C   UNL     1       9.092  -0.091   0.000  0.00  0.00    +0.207 C 
ATOM      3  C   UNL     1       7.793   0.658   0.000  0.00  0.00    +0.047 C 
ATOM      4  C   UNL     1       6.606  -0.258   0.000  0.00  0.00    +0.046 C 
ATOM      5  C   UNL     1       6.406  -1.745   0.000  0.00  0.00    -0.007 C 
ATOM      6  C   UNL     1       5.059  -2.406   0.000  0.00  0.00    +0.008 C 
ATOM      7  C   UNL     1       7.705  -2.495   0.000  0.00  0.00    +0.037 C 
ATOM      8  C   UNL     1       7.681  -3.995   0.000  0.00  0.00    +0.147 C 
ATOM     11  C   UNL     1       8.719  -5.078   0.000  0.00  0.00    +0.150 C 
ATOM     14  C   UNL     1       9.620  -6.277   0.000  0.00  0.00    +0.040 C 
ATOM     15  C   UNL     1       8.854  -7.566   0.000  0.00  0.00    +0.014 C 
ATOM     16  C   UNL     1      11.104  -6.497   0.000  0.00  0.00    -0.019 C 
ATOM     17  C   UNL     1      12.180  -7.542   0.000  0.00  0.00    -0.033 C 
ATOM     18  C   UNL     1      11.875  -9.010   0.000  0.00  0.00    +0.042 C 
ATOM     19  C   UNL     1      13.584  -7.011   0.000  0.00  0.00    +0.236 C 
ATOM     26  C   UNL     1      13.700  -5.516   0.000  0.00  0.00    +0.186 C 
ATOM     29  C   UNL     1      15.128  -5.977   0.000  0.00  0.00    +0.008 C 
ATOM     30  C   UNL     1      16.096  -4.831   0.000  0.00  0.00    -0.001 C 
ATOM     31  C   UNL     1      15.980  -3.335   0.000  0.00  0.00    +0.008 C 
ATOM     32  C   UNL     1      14.552  -2.875   0.000  0.00  0.00    +0.012 C 
ATOM     33  C   UNL     1      13.432  -3.872   0.000  0.00  0.00    +0.049 C 
ATOM     34  C   UNL     1      14.260  -1.404   0.000  0.00  0.00    +0.244 C 
ATOM     35  O   UNL     1      15.510  -0.575   0.000  0.00  0.00    -0.270 OA
ATOM     36  N   UNL     1      13.018  -0.562   0.000  0.00  0.00    -0.279 N 
ATOM     37  H   UNL     1      13.758   0.743   0.000  0.00  0.00    +0.155 HD
ATOM     38  C   UNL     1       7.793   2.159   0.000  0.00  0.00    +0.173 C 
ATOM     41  C   UNL     1       9.092   2.909   0.000  0.00  0.00    +0.222 C 
ATOM     42  C   UNL     1      10.391   2.159   0.000  0.00  0.00    +0.081 C 
ATOM     43  O   UNL     1       9.092   4.409   0.000  0.00  0.00    -0.284 OA
ATOM     44  C   UNL     1      10.391   0.659   0.000  0.00  0.00    +0.085 C 
ENDROOT
BRANCH   8   9
ATOM      9  O   UNL     1       6.285  -4.543   0.000  0.00  0.00    -0.377 OA
ATOM     10  C   UNL     1       5.112  -3.607   0.000  0.00  0.00    +0.194 C 
ENDBRANCH   8   9
BRANCH  11  12
ATOM     12  O   UNL     1       9.862  -4.107   0.000  0.00  0.00    -0.389 OA
ATOM     13  H   UNL     1      10.775  -4.434   0.000  0.00  0.00    +0.210 HD
ENDBRANCH  11  12
BRANCH  26  27
ATOM     27  O   UNL     1      12.489  -4.631   0.000  0.00  0.00    -0.372 OA
ATOM     28  C   UNL     1      12.651  -3.140   0.000  0.00  0.00    +0.195 C 
ENDBRANCH  26  27
BRANCH  38  39
ATOM     39  O   UNL     1       6.494   2.909   0.000  0.00  0.00    -0.491 OA
ATOM     40  C   UNL     1       5.195   2.159   0.000  0.00  0.00    +0.277 C 
ENDBRANCH  38  39
BRANCH  19  20
ATOM     20  O   UNL     1      14.783  -7.912   0.000  0.00  0.00    -0.440 OA
BRANCH  20  21
ATOM     21  C   UNL     1      16.163  -7.323   0.000  0.00  0.00    +0.398 C 
ATOM     22  N   UNL     1      17.363  -8.223   0.000  0.00  0.00    -0.295 N 
ATOM     23  H   UNL     1      18.268  -7.837   0.000  0.00  0.00    +0.148 HD
ATOM     24  H   UNL     1      17.245  -9.201   0.000  0.00  0.00    +0.148 HD
ATOM     25  O   UNL     1      16.343  -5.834   0.000  0.00  0.00    -0.227 OA
ENDBRANCH  20  21
ENDBRANCH  19  20
TORSDOF 6