REMARK  Name = NSC 7533
REMARK  26 active torsions:
REMARK  status: ('A' for Active; 'I' for Inactive)
REMARK    1  A    between atoms: C_3  and  C_4
REMARK    2  A    between atoms: C_7  and  O_8
REMARK    3  A    between atoms: C_14  and  O_17
REMARK    4  A    between atoms: O_17  and  C_18
REMARK    5  A    between atoms: C_20  and  O_21
REMARK    6  A    between atoms: C_22  and  O_25
REMARK    7  A    between atoms: C_23  and  C_24
REMARK    8  A    between atoms: O_25  and  C_26
REMARK    9  A    between atoms: C_28  and  O_29
REMARK   10  A    between atoms: C_30  and  O_33
REMARK   11  A    between atoms: C_31  and  C_32
REMARK   12  A    between atoms: O_33  and  C_34
REMARK   13  A    between atoms: C_36  and  O_37
REMARK   14  A    between atoms: O_37  and  C_38
REMARK   15  A    between atoms: C_38  and  C_39
REMARK   16  A    between atoms: C_41  and  O_44
REMARK   17  A    between atoms: C_42  and  C_43
REMARK   18  A    between atoms: O_44  and  C_45
REMARK   19  A    between atoms: C_46  and  O_47
REMARK   20  A    between atoms: C_48  and  O_49
REMARK   21  A    between atoms: C_50  and  O_51
REMARK   22  A    between atoms: C_52  and  C_53
REMARK   23  A    between atoms: C_53  and  O_54
REMARK   24  A    between atoms: C_59  and  C_60
REMARK   25  A    between atoms: C_63  and  O_64
REMARK   26  A    between atoms: C_65  and  C_66
REMARK                            x       y       z     vdW  Elec       q    Type
REMARK                         _______ _______ _______ _____ _____    ______ ____
ROOT
ATOM     19  C   UNL     1      -3.393 -18.392   0.000  0.00  0.00    +0.253 C 
ATOM     20  C   UNL     1      -2.094 -19.142   0.000  0.00  0.00    +0.095 C 
ATOM     21  C   UNL     1      -0.795 -18.392   0.000  0.00  0.00    +0.151 C 
ATOM     24  C   UNL     1      -0.795 -16.892   0.000  0.00  0.00    +0.178 C 
ATOM     25  C   UNL     1      -2.094 -16.142   0.000  0.00  0.00    +0.150 C 
ATOM     26  C   UNL     1      -2.094 -14.642   0.000  0.00  0.00    +0.041 C 
ATOM     65  O   UNL     1      -3.393 -16.892   0.000  0.00  0.00    -0.346 OA
ENDROOT
BRANCH  21  22
ATOM     22  O   UNL     1       0.504 -19.142   0.000  0.00  0.00    -0.389 OA
ATOM     23  H   UNL     1       0.504 -20.112   0.000  0.00  0.00    +0.210 HD
ENDBRANCH  21  22
BRANCH  19  18
ATOM     18  O   UNL     1      -4.692 -19.142   0.000  0.00  0.00    -0.348 OA
BRANCH  18  15
ATOM      4  C   UNL     1     -13.913 -14.179   0.000  0.00  0.00    +0.030 C 
ATOM      5  C   UNL     1     -14.795 -15.392   0.000  0.00  0.00    +0.011 C 
ATOM      6  C   UNL     1     -13.913 -16.606   0.000  0.00  0.00    +0.036 C 
ATOM      7  C   UNL     1     -12.486 -16.142   0.000  0.00  0.00    +0.077 C 
ATOM     10  C   UNL     1     -11.187 -16.892   0.000  0.00  0.00    +0.025 C 
ATOM     11  C   UNL     1     -11.187 -18.392   0.000  0.00  0.00    +0.007 C 
ATOM     12  C   UNL     1      -9.888 -19.142   0.000  0.00  0.00    +0.004 C 
ATOM     13  C   UNL     1      -8.589 -18.392   0.000  0.00  0.00    -0.002 C 
ATOM     14  C   UNL     1      -7.290 -19.142   0.000  0.00  0.00    +0.035 C 
ATOM     15  C   UNL     1      -5.991 -18.392   0.000  0.00  0.00    +0.122 C 
ATOM     16  C   UNL     1      -5.991 -16.892   0.000  0.00  0.00    +0.032 C 
ATOM     17  C   UNL     1      -7.290 -16.142   0.000  0.00  0.00    +0.010 C 
ATOM     66  C   UNL     1      -8.589 -16.892   0.000  0.00  0.00    -0.026 C 
ATOM     67  C   UNL     1      -8.589 -15.392   0.000  0.00  0.00    +0.012 C 
ATOM     68  C   UNL     1      -9.888 -16.142   0.000  0.00  0.00    +0.003 C 
ATOM     69  C   UNL     1      -9.888 -14.642   0.000  0.00  0.00    +0.036 C 
ATOM     70  C   UNL     1     -11.187 -13.892   0.000  0.00  0.00    +0.124 C 
ATOM     73  C   UNL     1     -12.486 -14.642   0.000  0.00  0.00    +0.029 C 
ATOM     74  C   UNL     1     -12.643 -13.151   0.000  0.00  0.00    +0.017 C 
BRANCH   4   3
ATOM      1  O   UNL     1     -15.803 -10.789   0.000  0.00  0.00    -0.457 OA
ATOM      2  C   UNL     1     -15.803 -12.289   0.000  0.00  0.00    +0.264 C 
ATOM      3  C   UNL     1     -14.377 -12.752   0.000  0.00  0.00    -0.022 C 
ATOM     75  C   UNL     1     -13.495 -11.539   0.000  0.00  0.00    +0.094 C 
ATOM     76  C   UNL     1     -14.377 -10.325   0.000  0.00  0.00    +0.332 C 
ATOM     77  O   UNL     1     -13.913  -8.899   0.000  0.00  0.00    -0.246 OA
ENDBRANCH   4   3
BRANCH   7   8
ATOM      8  O   UNL     1     -12.643 -17.634   0.000  0.00  0.00    -0.388 OA
ATOM      9  H   UNL     1     -13.529 -18.029   0.000  0.00  0.00    +0.210 HD
ENDBRANCH   7   8
BRANCH  70  71
ATOM     71  O   UNL     1     -11.187 -12.392   0.000  0.00  0.00    -0.391 OA
ATOM     72  H   UNL     1     -10.347 -11.907   0.000  0.00  0.00    +0.210 HD
ENDBRANCH  70  71
ENDBRANCH  18  15
ENDBRANCH  19  18
BRANCH  24  27
ATOM     27  O   UNL     1       0.504 -16.142   0.000  0.00  0.00    -0.343 OA
BRANCH  27  28
ATOM     28  C   UNL     1       0.504 -14.642   0.000  0.00  0.00    +0.254 C 
ATOM     29  C   UNL     1       1.803 -13.892   0.000  0.00  0.00    +0.095 C 
ATOM     30  C   UNL     1       1.803 -12.392   0.000  0.00  0.00    +0.151 C 
ATOM     33  C   UNL     1       0.504 -11.642   0.000  0.00  0.00    +0.178 C 
ATOM     34  C   UNL     1      -0.795 -12.392   0.000  0.00  0.00    +0.150 C 
ATOM     35  C   UNL     1      -2.094 -11.642   0.000  0.00  0.00    +0.041 C 
ATOM     64  O   UNL     1      -0.795 -13.892   0.000  0.00  0.00    -0.346 OA
BRANCH  30  31
ATOM     31  O   UNL     1       3.102 -11.642   0.000  0.00  0.00    -0.389 OA
ATOM     32  H   UNL     1       3.942 -12.127   0.000  0.00  0.00    +0.210 HD
ENDBRANCH  30  31
BRANCH  33  36
ATOM     36  O   UNL     1       0.504 -10.142   0.000  0.00  0.00    -0.343 OA
BRANCH  36  37
ATOM     37  C   UNL     1      -0.795  -9.392   0.000  0.00  0.00    +0.255 C 
ATOM     38  C   UNL     1      -0.795  -7.892   0.000  0.00  0.00    +0.108 C 
ATOM     39  C   UNL     1      -2.094  -7.142   0.000  0.00  0.00    +0.212 C 
ATOM     44  C   UNL     1      -3.393  -7.892   0.000  0.00  0.00    +0.191 C 
ATOM     45  C   UNL     1      -3.393  -9.392   0.000  0.00  0.00    +0.151 C 
ATOM     46  C   UNL     1      -4.692 -10.142   0.000  0.00  0.00    +0.041 C 
ATOM     63  O   UNL     1      -2.094 -10.142   0.000  0.00  0.00    -0.346 OA
BRANCH  39  40
ATOM     40  O   UNL     1      -2.094  -5.642   0.000  0.00  0.00    -0.459 OA
BRANCH  40  41
ATOM     41  C   UNL     1      -0.795  -4.892   0.000  0.00  0.00    +0.304 C 
ATOM     42  C   UNL     1      -0.795  -3.392   0.000  0.00  0.00    +0.136 C 
ATOM     43  O   UNL     1       0.504  -5.642   0.000  0.00  0.00    -0.251 OA
ENDBRANCH  40  41
ENDBRANCH  39  40
BRANCH  44  47
ATOM     47  O   UNL     1      -4.692  -7.142   0.000  0.00  0.00    -0.339 OA
BRANCH  47  48
ATOM     48  C   UNL     1      -5.991  -7.892   0.000  0.00  0.00    +0.282 C 
ATOM     49  C   UNL     1      -7.290  -7.142   0.000  0.00  0.00    +0.201 C 
ATOM     52  C   UNL     1      -8.589  -7.892   0.000  0.00  0.00    +0.179 C 
ATOM     55  C   UNL     1      -8.589  -9.392   0.000  0.00  0.00    +0.177 C 
ATOM     58  C   UNL     1      -7.290 -10.142   0.000  0.00  0.00    +0.178 C 
ATOM     62  O   UNL     1      -5.991  -9.392   0.000  0.00  0.00    -0.341 OA
BRANCH  49  50
ATOM     50  O   UNL     1      -7.290  -5.642   0.000  0.00  0.00    -0.384 OA
ATOM     51  H   UNL     1      -6.450  -5.157   0.000  0.00  0.00    +0.210 HD
ENDBRANCH  49  50
BRANCH  52  53
ATOM     53  O   UNL     1      -9.888  -7.142   0.000  0.00  0.00    -0.386 OA
ATOM     54  H   UNL     1      -9.888  -6.172   0.000  0.00  0.00    +0.210 HD
ENDBRANCH  52  53
BRANCH  55  56
ATOM     56  O   UNL     1      -9.888 -10.142   0.000  0.00  0.00    -0.386 OA
ATOM     57  H   UNL     1     -10.728  -9.657   0.000  0.00  0.00    +0.210 HD
ENDBRANCH  55  56
BRANCH  58  59
ATOM     59  C   UNL     1      -7.290 -11.642   0.000  0.00  0.00    +0.190 C 
BRANCH  59  60
ATOM     60  O   UNL     1      -8.589 -12.392   0.000  0.00  0.00    -0.392 OA
ATOM     61  H   UNL     1      -9.429 -11.907   0.000  0.00  0.00    +0.210 HD
ENDBRANCH  59  60
ENDBRANCH  58  59
ENDBRANCH  47  48
ENDBRANCH  44  47
ENDBRANCH  36  37
ENDBRANCH  33  36
ENDBRANCH  27  28
ENDBRANCH  24  27
TORSDOF 20