REMARK  Name = NSC 345647
REMARK  11 active torsions:
REMARK  status: ('A' for Active; 'I' for Inactive)
REMARK    1  A    between atoms: C_2  and  O_3
REMARK    2  A    between atoms: C_4  and  C_5
REMARK    3  A    between atoms: C_8  and  O_9
REMARK    4  A    between atoms: C_13  and  C_14
REMARK    5  A    between atoms: C_15  and  C_16
REMARK    6  A    between atoms: C_19  and  O_20
REMARK    7  A    between atoms: C_23  and  O_24
REMARK    8  A    between atoms: C_29  and  C_30
REMARK    9  A    between atoms: C_31  and  C_32
REMARK   10  A    between atoms: C_36  and  O_37
REMARK   11  A    between atoms: C_39  and  O_40
REMARK                            x       y       z     vdW  Elec       q    Type
REMARK                         _______ _______ _______ _____ _____    ______ ____
ROOT
ATOM      1  C   UNL     1       4.668   9.000   0.000  0.00  0.00    +0.092 A 
ATOM      2  C   UNL     1       4.668   7.500   0.000  0.00  0.00    +0.129 A 
ATOM      5  C   UNL     1       5.967   6.750   0.000  0.00  0.00    +0.036 A 
ATOM     29  C   UNL     1       7.266   7.500   0.000  0.00  0.00    +0.004 A 
ATOM     30  C   UNL     1       8.565   6.750   0.000  0.00  0.00    +0.056 A 
ATOM     31  C   UNL     1       9.864   7.500   0.000  0.00  0.00    +0.136 A 
ATOM     32  O   UNL     1      11.163   6.750   0.000  0.00  0.00    -0.488 OA
ATOM     33  C   UNL     1      12.462   7.500   0.000  0.00  0.00    +0.181 C 
ATOM     34  C   UNL     1      13.761   6.750   0.000  0.00  0.00    +0.052 C 
ATOM     35  C   UNL     1      12.462   9.000   0.000  0.00  0.00    +0.098 C 
ATOM     36  C   UNL     1      13.761   9.750   0.000  0.00  0.00    +0.019 C 
ATOM     37  C   UNL     1      11.163   9.750   0.000  0.00  0.00    +0.176 C 
ATOM     38  O   UNL     1      11.163  11.250   0.000  0.00  0.00    -0.291 OA
ATOM     39  C   UNL     1       9.864   9.000   0.000  0.00  0.00    +0.101 A 
ATOM     40  C   UNL     1       8.565   9.750   0.000  0.00  0.00    +0.142 A 
ATOM     43  C   UNL     1       7.266   9.000   0.000  0.00  0.00    +0.067 A 
ATOM     44  C   UNL     1       5.967   9.750   0.000  0.00  0.00    +0.132 A 
ENDROOT
BRANCH   5   6
ATOM      6  C   UNL     1       5.967   5.250   0.000  0.00  0.00    +0.036 A 
ATOM      7  C   UNL     1       7.266   4.500   0.000  0.00  0.00    +0.004 A 
ATOM      8  C   UNL     1       7.266   3.000   0.000  0.00  0.00    +0.067 A 
ATOM      9  C   UNL     1       8.565   2.250   0.000  0.00  0.00    +0.142 A 
ATOM     12  C   UNL     1       9.864   3.000   0.000  0.00  0.00    +0.101 A 
ATOM     13  C   UNL     1      11.163   2.250   0.000  0.00  0.00    +0.176 C 
ATOM     14  O   UNL     1      11.163   0.750   0.000  0.00  0.00    -0.291 OA
ATOM     15  C   UNL     1      12.462   3.000   0.000  0.00  0.00    +0.098 C 
ATOM     16  C   UNL     1      13.761   2.250   0.000  0.00  0.00    +0.019 C 
ATOM     17  C   UNL     1      12.462   4.500   0.000  0.00  0.00    +0.181 C 
ATOM     18  C   UNL     1      13.761   5.250   0.000  0.00  0.00    +0.052 C 
ATOM     19  O   UNL     1      11.163   5.250   0.000  0.00  0.00    -0.488 OA
ATOM     20  C   UNL     1       9.864   4.500   0.000  0.00  0.00    +0.136 A 
ATOM     21  C   UNL     1       5.967   2.250   0.000  0.00  0.00    +0.132 A 
ATOM     24  C   UNL     1       4.668   3.000   0.000  0.00  0.00    +0.092 A 
ATOM     25  C   UNL     1       8.565   5.250   0.000  0.00  0.00    +0.056 A 
ATOM     26  C   UNL     1       4.668   4.500   0.000  0.00  0.00    +0.129 A 
BRANCH   9  10
ATOM     10  O   UNL     1       8.565   0.750   0.000  0.00  0.00    -0.505 OA
ATOM     11  H   UNL     1       7.754   0.281   0.000  0.00  0.00    +0.292 HD
ENDBRANCH   9  10
BRANCH  21  22
ATOM     22  O   UNL     1       5.967   0.750   0.000  0.00  0.00    -0.506 OA
ATOM     23  H   UNL     1       5.156   0.281   0.000  0.00  0.00    +0.292 HD
ENDBRANCH  21  22
BRANCH  26  27
ATOM     27  O   UNL     1       3.369   5.250   0.000  0.00  0.00    -0.506 OA
ATOM     28  H   UNL     1       3.369   6.187   0.000  0.00  0.00    +0.292 HD
ENDBRANCH  26  27
ENDBRANCH   5   6
BRANCH   2   3
ATOM      3  O   UNL     1       3.369   6.750   0.000  0.00  0.00    -0.506 OA
ATOM      4  H   UNL     1       2.558   7.218   0.000  0.00  0.00    +0.292 HD
ENDBRANCH   2   3
BRANCH  40  41
ATOM     41  O   UNL     1       8.565  11.250   0.000  0.00  0.00    -0.505 OA
ATOM     42  H   UNL     1       9.377  11.719   0.000  0.00  0.00    +0.292 HD
ENDBRANCH  40  41
BRANCH  44  45
ATOM     45  O   UNL     1       5.967  11.250   0.000  0.00  0.00    -0.506 OA
ATOM     46  H   UNL     1       6.778  11.719   0.000  0.00  0.00    +0.292 HD
ENDBRANCH  44  45
TORSDOF 7