REMARK  Name = NSC 20103
REMARK  5 active torsions:
REMARK  status: ('A' for Active; 'I' for Inactive)
REMARK    1  A    between atoms: C_2  and  C_3
REMARK    2  A    between atoms: C_3  and  O_4
REMARK    3  A    between atoms: C_7  and  O_8
REMARK    4  A    between atoms: C_9  and  O_10
REMARK    5  A    between atoms: C_11  and  O_12
REMARK                            x       y       z     vdW  Elec       q    Type
REMARK                         _______ _______ _______ _____ _____    ______ ____
ROOT
ATOM      1  C   UNL     1      -2.223  -3.650   0.000  0.00  0.00    +0.064 A 
ATOM      2  C   UNL     1      -0.924  -4.399   0.000  0.00  0.00    +0.066 A 
ATOM      7  C   UNL     1      -0.924  -5.899   0.000  0.00  0.00    +0.064 A 
ATOM      8  C   UNL     1      -2.223  -6.649   0.000  0.00  0.00    +0.163 A 
ATOM     11  C   UNL     1      -3.522  -5.899   0.000  0.00  0.00    +0.201 A 
ATOM     14  C   UNL     1      -3.522  -4.399   0.000  0.00  0.00    +0.163 A 
ENDROOT
BRANCH   2   3
ATOM      3  C   UNL     1       0.375  -3.650   0.000  0.00  0.00    +0.337 C 
ATOM      6  O   UNL     1       1.674  -4.399   0.000  0.00  0.00    -0.245 OA
BRANCH   3   4
ATOM      4  O   UNL     1       0.375  -2.150   0.000  0.00  0.00    -0.477 OA
ATOM      5  H   UNL     1       1.186  -1.681   0.000  0.00  0.00    +0.295 HD
ENDBRANCH   3   4
ENDBRANCH   2   3
BRANCH   8   9
ATOM      9  O   UNL     1      -2.223  -8.149   0.000  0.00  0.00    -0.503 OA
ATOM     10  H   UNL     1      -3.035  -8.618   0.000  0.00  0.00    +0.292 HD
ENDBRANCH   8   9
BRANCH  11  12
ATOM     12  O   UNL     1      -4.821  -6.649   0.000  0.00  0.00    -0.501 OA
ATOM     13  H   UNL     1      -5.633  -6.181   0.000  0.00  0.00    +0.292 HD
ENDBRANCH  11  12
BRANCH  14  15
ATOM     15  O   UNL     1      -4.821  -3.650   0.000  0.00  0.00    -0.503 OA
ATOM     16  H   UNL     1      -4.821  -2.713   0.000  0.00  0.00    +0.292 HD
ENDBRANCH  14  15
TORSDOF 5