REMARK  Name = NSC 276382#1
REMARK  52 active torsions:
REMARK  status: ('A' for Active; 'I' for Inactive)
REMARK    1  A    between atoms: C_1  and  C_2
REMARK    2  A    between atoms: C_5  and  C_7
REMARK    3  A    between atoms: C_7  and  N_8
REMARK    4  A    between atoms: C_7  and  C_20
REMARK    5  A    between atoms: N_8  and  C_10
REMARK    6  A    between atoms: C_10  and  C_11
REMARK    7  A    between atoms: C_11  and  N_12
REMARK    8  A    between atoms: C_11  and  C_15
REMARK    9  A    between atoms: C_20  and  C_21
REMARK   10  A    between atoms: C_29  and  C_30
REMARK   11  A    between atoms: N_32  and  C_34
REMARK   12  A    between atoms: C_34  and  C_35
REMARK   13  A    between atoms: C_34  and  C_88
REMARK   14  A    between atoms: N_37  and  C_39
REMARK   15  A    between atoms: C_39  and  C_40
REMARK   16  A    between atoms: C_39  and  C_87
REMARK   17  A    between atoms: C_40  and  O_41
REMARK   18  A    between atoms: C_40  and  C_43
REMARK   19  A    between atoms: C_43  and  C_44
REMARK   20  A    between atoms: C_43  and  C_86
REMARK   21  A    between atoms: N_46  and  C_48
REMARK   22  A    between atoms: C_48  and  C_49
REMARK   23  A    between atoms: C_48  and  C_82
REMARK   24  A    between atoms: N_51  and  C_53
REMARK   25  A    between atoms: C_53  and  C_54
REMARK   26  A    between atoms: C_54  and  C_55
REMARK   27  A    between atoms: C_58  and  C_59
REMARK   28  A    between atoms: C_62  and  C_63
REMARK   29  A    between atoms: N_65  and  C_67
REMARK   30  A    between atoms: C_67  and  C_68
REMARK   31  A    between atoms: C_68  and  C_69
REMARK   32  A    between atoms: C_69  and  N_70
REMARK   33  A    between atoms: N_70  and  C_72
REMARK   34  A    between atoms: C_72  and  C_73
REMARK   35  A    between atoms: C_72  and  C_79
REMARK   36  A    between atoms: C_82  and  O_83
REMARK   37  A    between atoms: C_82  and  C_85
REMARK   38  A    between atoms: C_88  and  O_89
REMARK   39  A    between atoms: C_88  and  C_123
REMARK   40  A    between atoms: O_89  and  C_90
REMARK   41  A    between atoms: C_92  and  C_99
REMARK   42  A    between atoms: C_93  and  O_94
REMARK   43  A    between atoms: C_96  and  O_97
REMARK   44  A    between atoms: C_99  and  O_100
REMARK   45  A    between atoms: C_102  and  O_103
REMARK   46  A    between atoms: O_103  and  C_104
REMARK   47  A    between atoms: C_106  and  C_117
REMARK   48  A    between atoms: C_107  and  O_108
REMARK   49  A    between atoms: C_110  and  O_111
REMARK   50  A    between atoms: O_111  and  C_112
REMARK   51  A    between atoms: C_117  and  O_118
REMARK   52  A    between atoms: C_120  and  O_121
REMARK                            x       y       z     vdW  Elec       q    Type
REMARK                         _______ _______ _______ _____ _____    ______ ____
ROOT
ATOM     34  C   UNL     1      11.143 -29.106   0.000  0.00  0.00    +0.194 C 
ENDROOT
BRANCH  34  32
ATOM     30  C   UNL     1       9.389 -31.618   0.000  0.00  0.00    +0.263 C 
ATOM     31  O   UNL     1      10.688 -32.368   0.000  0.00  0.00    -0.268 OA
ATOM     32  N   UNL     1       9.389 -30.118   0.000  0.00  0.00    -0.296 N 
ATOM     33  H   UNL     1       8.090 -29.368   0.000  0.00  0.00    +0.150 HD
BRANCH  30  29
ATOM      1  C   UNL     1       6.791 -30.118   0.000  0.00  0.00    +0.050 C 
ATOM      2  C   UNL     1       6.791 -31.618   0.000  0.00  0.00    +0.020 A 
ATOM      3  C   UNL     1       5.492 -32.368   0.000  0.00  0.00    +0.123 A 
ATOM      4  N   UNL     1       5.492 -33.868   0.000  0.00  0.00    -0.216 NA
ATOM      5  C   UNL     1       6.791 -34.618   0.000  0.00  0.00    +0.149 A 
ATOM      6  N   UNL     1       8.090 -33.868   0.000  0.00  0.00    -0.225 NA
ATOM     26  N   UNL     1       4.193 -31.618   0.000  0.00  0.00    -0.343 N 
ATOM     27  H   UNL     1       4.193 -30.118   0.000  0.00  0.00    +0.144 HD
ATOM     28  H   UNL     1       2.894 -32.368   0.000  0.00  0.00    +0.144 HD
ATOM     29  C   UNL     1       8.090 -32.368   0.000  0.00  0.00    +0.134 A 
BRANCH   5   7
ATOM      7  C   UNL     1       6.791 -36.118   0.000  0.00  0.00    +0.131 C 
BRANCH   7   8
ATOM      8  N   UNL     1       5.492 -36.868   0.000  0.00  0.00    -0.304 NA
ATOM      9  H   UNL     1       4.193 -36.118   0.000  0.00  0.00    +0.123 HD
BRANCH   8  10
ATOM     10  C   UNL     1       5.492 -38.368   0.000  0.00  0.00    +0.109 C 
BRANCH  10  11
ATOM     11  C   UNL     1       4.193 -39.118   0.000  0.00  0.00    +0.151 C 
BRANCH  11  15
ATOM     15  C   UNL     1       4.193 -40.618   0.000  0.00  0.00    +0.229 C 
ATOM     16  O   UNL     1       5.492 -41.368   0.000  0.00  0.00    -0.274 OA
ATOM     17  N   UNL     1       2.894 -41.368   0.000  0.00  0.00    -0.328 N 
ATOM     18  H   UNL     1       1.595 -40.618   0.000  0.00  0.00    +0.145 HD
ATOM     19  H   UNL     1       2.894 -42.868   0.000  0.00  0.00    +0.145 HD
ENDBRANCH  11  15
BRANCH  11  12
ATOM     12  N   UNL     1       2.894 -38.368   0.000  0.00  0.00    -0.319 NA
ATOM     13  H   UNL     1       2.894 -36.868   0.000  0.00  0.00    +0.119 HD
ATOM     14  H   UNL     1       1.595 -39.118   0.000  0.00  0.00    +0.119 HD
ENDBRANCH  11  12
ENDBRANCH  10  11
ENDBRANCH   8  10
ENDBRANCH   7   8
BRANCH   7  20
ATOM     20  C   UNL     1       8.090 -36.868   0.000  0.00  0.00    +0.122 C 
BRANCH  20  21
ATOM     21  C   UNL     1       8.090 -38.368   0.000  0.00  0.00    +0.212 C 
ATOM     22  O   UNL     1       6.791 -39.118   0.000  0.00  0.00    -0.276 OA
ATOM     23  N   UNL     1       9.389 -39.118   0.000  0.00  0.00    -0.329 N 
ATOM     24  H   UNL     1      10.688 -38.368   0.000  0.00  0.00    +0.145 HD
ATOM     25  H   UNL     1       9.389 -40.618   0.000  0.00  0.00    +0.145 HD
ENDBRANCH  20  21
ENDBRANCH   7  20
ENDBRANCH   5   7
ENDBRANCH  30  29
ENDBRANCH  34  32
BRANCH  34  35
ATOM     35  C   UNL     1      11.143 -27.606   0.000  0.00  0.00    +0.237 C 
ATOM     36  O   UNL     1      12.442 -26.856   0.000  0.00  0.00    -0.274 OA
ATOM     37  N   UNL     1       9.844 -26.856   0.000  0.00  0.00    -0.309 N 
ATOM     38  H   UNL     1       8.545 -27.606   0.000  0.00  0.00    +0.149 HD
BRANCH  37  39
ATOM     39  C   UNL     1       9.844 -25.356   0.000  0.00  0.00    +0.099 C 
ATOM     87  C   UNL     1      11.143 -24.606   0.000  0.00  0.00    +0.030 C 
BRANCH  39  40
ATOM     40  C   UNL     1       8.545 -24.606   0.000  0.00  0.00    +0.146 C 
BRANCH  40  41
ATOM     41  O   UNL     1       8.545 -23.106   0.000  0.00  0.00    -0.389 OA
ATOM     42  H   UNL     1       7.246 -22.356   0.000  0.00  0.00    +0.210 HD
ENDBRANCH  40  41
BRANCH  40  43
ATOM     43  C   UNL     1       7.246 -25.356   0.000  0.00  0.00    +0.102 C 
ATOM     86  C   UNL     1       7.246 -26.856   0.000  0.00  0.00    +0.020 C 
BRANCH  43  44
ATOM     44  C   UNL     1       5.947 -24.606   0.000  0.00  0.00    +0.219 C 
ATOM     45  O   UNL     1       5.947 -23.106   0.000  0.00  0.00    -0.275 OA
ATOM     46  N   UNL     1       4.648 -25.356   0.000  0.00  0.00    -0.302 N 
ATOM     47  H   UNL     1       4.648 -26.856   0.000  0.00  0.00    +0.150 HD
BRANCH  46  48
ATOM     48  C   UNL     1       3.349 -24.606   0.000  0.00  0.00    +0.187 C 
BRANCH  48  49
ATOM     49  C   UNL     1       2.050 -25.356   0.000  0.00  0.00    +0.236 C 
ATOM     50  O   UNL     1       2.050 -26.856   0.000  0.00  0.00    -0.274 OA
ATOM     51  N   UNL     1       0.750 -24.606   0.000  0.00  0.00    -0.313 N 
ATOM     52  H   UNL     1       0.750 -23.106   0.000  0.00  0.00    +0.149 HD
BRANCH  51  53
ATOM     53  C   UNL     1      -0.549 -25.356   0.000  0.00  0.00    +0.111 C 
BRANCH  53  54
ATOM     54  C   UNL     1      -1.848 -24.606   0.000  0.00  0.00    +0.081 C 
BRANCH  54  55
ATOM     55  C   UNL     1      -3.147 -25.356   0.000  0.00  0.00    +0.081 A 
ATOM     56  S   UNL     1      -4.517 -24.746   0.000  0.00  0.00    -0.080 S 
ATOM     57  C   UNL     1      -5.521 -25.860   0.000  0.00  0.00    +0.077 A 
ATOM     58  C   UNL     1      -4.771 -27.160   0.000  0.00  0.00    +0.103 A 
ATOM     81  N   UNL     1      -3.304 -26.848   0.000  0.00  0.00    -0.242 NA
BRANCH  58  59
ATOM     59  C   UNL     1      -5.381 -28.530   0.000  0.00  0.00    +0.128 A 
ATOM     60  S   UNL     1      -6.848 -28.842   0.000  0.00  0.00    -0.073 S 
ATOM     61  C   UNL     1      -7.005 -30.334   0.000  0.00  0.00    +0.080 A 
ATOM     62  C   UNL     1      -5.635 -30.944   0.000  0.00  0.00    +0.133 A 
ATOM     80  N   UNL     1      -4.631 -29.829   0.000  0.00  0.00    -0.233 NA
BRANCH  62  63
ATOM     63  C   UNL     1      -5.322 -32.411   0.000  0.00  0.00    +0.263 C 
ATOM     64  O   UNL     1      -3.896 -32.874   0.000  0.00  0.00    -0.269 OA
ATOM     65  N   UNL     1      -6.437 -33.415   0.000  0.00  0.00    -0.310 N 
ATOM     66  H   UNL     1      -7.864 -32.951   0.000  0.00  0.00    +0.149 HD
BRANCH  65  67
ATOM     67  C   UNL     1      -6.125 -34.882   0.000  0.00  0.00    +0.106 C 
BRANCH  67  68
ATOM     68  C   UNL     1      -7.240 -35.886   0.000  0.00  0.00    +0.034 C 
BRANCH  68  69
ATOM     69  C   UNL     1      -6.928 -37.353   0.000  0.00  0.00    +0.083 C 
BRANCH  69  70
ATOM     70  N   UNL     1      -8.043 -38.356   0.000  0.00  0.00    -0.309 NA
ATOM     71  H   UNL     1      -9.470 -37.893   0.000  0.00  0.00    +0.122 HD
BRANCH  70  72
ATOM     72  C   UNL     1      -7.731 -39.824   0.000  0.00  0.00    +0.081 C 
ATOM     79  C   UNL     1      -6.304 -40.287   0.000  0.00  0.00    +0.029 C 
BRANCH  72  73
ATOM     73  C   UNL     1      -8.846 -40.827   0.000  0.00  0.00    -0.031 A 
ATOM     74  C   UNL     1     -10.272 -40.364   0.000  0.00  0.00    +0.005 A 
ATOM     75  C   UNL     1     -11.387 -41.368   0.000  0.00  0.00    +0.000 A 
ATOM     76  C   UNL     1     -11.075 -42.835   0.000  0.00  0.00    +0.000 A 
ATOM     77  C   UNL     1      -9.649 -43.298   0.000  0.00  0.00    +0.000 A 
ATOM     78  C   UNL     1      -8.534 -42.295   0.000  0.00  0.00    +0.005 A 
ENDBRANCH  72  73
ENDBRANCH  70  72
ENDBRANCH  69  70
ENDBRANCH  68  69
ENDBRANCH  67  68
ENDBRANCH  65  67
ENDBRANCH  62  63
ENDBRANCH  58  59
ENDBRANCH  54  55
ENDBRANCH  53  54
ENDBRANCH  51  53
ENDBRANCH  48  49
BRANCH  48  82
ATOM     82  C   UNL     1       3.348 -23.106   0.000  0.00  0.00    +0.141 C 
ATOM     85  C   UNL     1       4.648 -22.356   0.000  0.00  0.00    +0.040 C 
BRANCH  82  83
ATOM     83  O   UNL     1       2.049 -22.356   0.000  0.00  0.00    -0.390 OA
ATOM     84  H   UNL     1       2.049 -20.856   0.000  0.00  0.00    +0.210 HD
ENDBRANCH  82  83
ENDBRANCH  48  82
ENDBRANCH  46  48
ENDBRANCH  43  44
ENDBRANCH  40  43
ENDBRANCH  39  40
ENDBRANCH  37  39
ENDBRANCH  34  35
BRANCH  34  88
ATOM     88  C   UNL     1      12.897 -30.118   0.000  0.00  0.00    +0.200 C 
BRANCH  88 123
ATOM    123  C   UNL     1      12.897 -31.618   0.000  0.00  0.00    +0.090 A 
ATOM    124  N   UNL     1      14.110 -32.500   0.000  0.00  0.00    -0.238 NA
ATOM    125  C   UNL     1      13.647 -33.926   0.000  0.00  0.00    +0.196 A 
ATOM    126  N   UNL     1      12.147 -33.926   0.000  0.00  0.00    -0.350 N 
ATOM    127  H   UNL     1      11.265 -35.140   0.000  0.00  0.00    +0.166 HD
ATOM    128  C   UNL     1      11.683 -32.500   0.000  0.00  0.00    +0.110 A 
ENDBRANCH  88 123
BRANCH  88  89
ATOM     89  O   UNL     1      14.196 -29.368   0.000  0.00  0.00    -0.337 OA
BRANCH  89  90
ATOM     90  C   UNL     1      15.495 -30.118   0.000  0.00  0.00    +0.283 C 
ATOM     91  O   UNL     1      15.495 -31.618   0.000  0.00  0.00    -0.340 OA
ATOM     92  C   UNL     1      16.794 -32.368   0.000  0.00  0.00    +0.178 C 
ATOM     93  C   UNL     1      18.093 -31.618   0.000  0.00  0.00    +0.177 C 
ATOM     96  C   UNL     1      18.093 -30.118   0.000  0.00  0.00    +0.179 C 
ATOM    102  C   UNL     1      16.794 -29.368   0.000  0.00  0.00    +0.208 C 
BRANCH  93  94
ATOM     94  O   UNL     1      19.392 -32.368   0.000  0.00  0.00    -0.386 OA
ATOM     95  H   UNL     1      19.392 -33.868   0.000  0.00  0.00    +0.210 HD
ENDBRANCH  93  94
BRANCH  96  97
ATOM     97  O   UNL     1      19.392 -29.368   0.000  0.00  0.00    -0.386 OA
ATOM     98  H   UNL     1      20.691 -30.118   0.000  0.00  0.00    +0.210 HD
ENDBRANCH  96  97
BRANCH  92  99
ATOM     99  C   UNL     1      16.794 -33.868   0.000  0.00  0.00    +0.190 C 
BRANCH  99 100
ATOM    100  O   UNL     1      15.495 -34.618   0.000  0.00  0.00    -0.392 OA
ATOM    101  H   UNL     1      15.495 -36.118   0.000  0.00  0.00    +0.210 HD
ENDBRANCH  99 100
ENDBRANCH  92  99
BRANCH 102 103
ATOM    103  O   UNL     1      16.794 -27.868   0.000  0.00  0.00    -0.338 OA
BRANCH 103 104
ATOM    104  C   UNL     1      18.203 -27.355   0.000  0.00  0.00    +0.283 C 
ATOM    105  O   UNL     1      19.352 -28.319   0.000  0.00  0.00    -0.340 OA
ATOM    106  C   UNL     1      20.762 -27.806   0.000  0.00  0.00    +0.179 C 
ATOM    107  C   UNL     1      21.022 -26.329   0.000  0.00  0.00    +0.189 C 
ATOM    110  C   UNL     1      19.873 -25.365   0.000  0.00  0.00    +0.242 C 
ATOM    120  C   UNL     1      18.464 -25.878   0.000  0.00  0.00    +0.213 C 
BRANCH 120 121
ATOM    121  O   UNL     1      17.315 -24.913   0.000  0.00  0.00    -0.383 OA
ATOM    122  H   UNL     1      15.905 -25.427   0.000  0.00  0.00    +0.210 HD
ENDBRANCH 120 121
BRANCH 107 108
ATOM    108  O   UNL     1      22.432 -25.816   0.000  0.00  0.00    -0.385 OA
ATOM    109  H   UNL     1      23.581 -26.780   0.000  0.00  0.00    +0.210 HD
ENDBRANCH 107 108
BRANCH 110 111
ATOM    111  O   UNL     1      20.134 -23.887   0.000  0.00  0.00    -0.442 OA
BRANCH 111 112
ATOM    112  C   UNL     1      18.985 -22.923   0.000  0.00  0.00    +0.398 C 
ATOM    113  O   UNL     1      17.575 -23.436   0.000  0.00  0.00    -0.227 OA
ATOM    114  N   UNL     1      19.245 -21.446   0.000  0.00  0.00    -0.295 N 
ATOM    115  H   UNL     1      20.655 -20.933   0.000  0.00  0.00    +0.148 HD
ATOM    116  H   UNL     1      18.096 -20.482   0.000  0.00  0.00    +0.148 HD
ENDBRANCH 111 112
ENDBRANCH 110 111
BRANCH 106 117
ATOM    117  C   UNL     1      21.911 -28.770   0.000  0.00  0.00    +0.190 C 
BRANCH 117 118
ATOM    118  O   UNL     1      21.651 -30.247   0.000  0.00  0.00    -0.392 OA
ATOM    119  H   UNL     1      22.800 -31.212   0.000  0.00  0.00    +0.210 HD
ENDBRANCH 117 118
ENDBRANCH 106 117
ENDBRANCH 103 104
ENDBRANCH 102 103
ENDBRANCH  89  90
ENDBRANCH  88  89
ENDBRANCH  34  88
TORSDOF 47