REMARK  Name = NSC 291312
REMARK  5 active torsions:
REMARK  status: ('A' for Active; 'I' for Inactive)
REMARK    1  A    between atoms: C_1  and  C_2
REMARK    2  A    between atoms: C_14  and  C_15
REMARK    3  A    between atoms: C_16  and  O_17
REMARK    4  A    between atoms: C_30  and  C_35
REMARK    5  A    between atoms: C_31  and  O_32
REMARK                            x       y       z     vdW  Elec       q    Type
REMARK                         _______ _______ _______ _____ _____    ______ ____
ROOT
ATOM      1  C   UNL     1      13.301  -1.914   0.000  0.00  0.00    +0.019 C 
ATOM      2  C   UNL     1      11.950  -2.564   0.000  0.00  0.00    +0.050 C 
ATOM      3  C   UNL     1      12.174  -1.081   0.000  0.00  0.00    +0.189 C 
ATOM      4  O   UNL     1      10.651  -0.314   0.000  0.00  0.00    -0.458 OA
ATOM      5  C   UNL     1      10.651   1.186   0.000  0.00  0.00    +0.332 C 
ATOM      6  C   UNL     1       9.352   1.936   0.000  0.00  0.00    +0.091 C 
ATOM      7  C   UNL     1       9.352   3.436   0.000  0.00  0.00    +0.007 C 
ATOM      8  C   UNL     1       8.053   4.186   0.000  0.00  0.00    +0.007 C 
ATOM      9  C   UNL     1       6.754   3.436   0.000  0.00  0.00    +0.091 C 
ATOM     10  C   UNL     1       5.455   4.186   0.000  0.00  0.00    +0.332 C 
ATOM     11  O   UNL     1       4.156   3.436   0.000  0.00  0.00    -0.462 OA
ATOM     12  C   UNL     1       4.156   1.936   0.000  0.00  0.00    +0.233 C 
ATOM     13  C   UNL     1       5.455   1.186   0.000  0.00  0.00    +0.047 C 
ATOM     14  C   UNL     1       5.455  -0.314   0.000  0.00  0.00    +0.029 C 
ATOM     15  C   UNL     1       4.156  -1.064   0.000  0.00  0.00    +0.011 C 
ATOM     16  C   UNL     1       6.754  -1.064   0.000  0.00  0.00    +0.225 C 
ATOM     19  C   UNL     1       6.754  -2.564   0.000  0.00  0.00    +0.336 C 
ATOM     20  O   UNL     1       5.455  -3.314   0.000  0.00  0.00    -0.248 OA
ATOM     21  O   UNL     1       8.053  -3.314   0.000  0.00  0.00    -0.462 OA
ATOM     22  C   UNL     1       9.352  -2.564   0.000  0.00  0.00    +0.242 C 
ATOM     23  O   UNL     1       5.455   5.686   0.000  0.00  0.00    -0.246 OA
ATOM     24  O   UNL     1      11.950   1.936   0.000  0.00  0.00    -0.246 OA
ATOM     25  C   UNL     1      13.570  -1.629   0.000  0.00  0.00    +0.080 C 
ATOM     26  C   UNL     1      13.249  -4.814   0.000  0.00  0.00    +0.157 C 
ATOM     27  O   UNL     1      11.950  -5.564   0.000  0.00  0.00    -0.366 OA
ATOM     28  C   UNL     1      10.651  -4.814   0.000  0.00  0.00    +0.152 C 
ATOM     29  C   UNL     1       9.352  -5.564   0.000  0.00  0.00    +0.006 C 
ATOM     30  C   UNL     1       8.053  -4.814   0.000  0.00  0.00    -0.046 C 
ATOM     31  C   UNL     1       8.313  -3.337   0.000  0.00  0.00    +0.141 C 
ATOM     34  C   UNL     1       9.723  -2.824   0.000  0.00  0.00    +0.049 C 
ATOM     35  C   UNL     1       6.693  -5.448   0.000  0.00  0.00    +0.041 C 
ATOM     36  C   UNL     1      10.651  -3.314   0.000  0.00  0.00    +0.049 C 
ATOM     37  C   UNL     1      13.822  -2.984   0.000  0.00  0.00    +0.128 C 
ATOM     38  O   UNL     1      15.439  -2.916   0.000  0.00  0.00    -0.365 OA
ATOM     39  C   UNL     1      14.689  -1.617   0.000  0.00  0.00    +0.199 C 
ENDROOT
BRANCH  16  17
ATOM     17  O   UNL     1       8.053  -0.314   0.000  0.00  0.00    -0.380 OA
ATOM     18  H   UNL     1       9.352  -1.064   0.000  0.00  0.00    +0.211 HD
ENDBRANCH  16  17
BRANCH  31  32
ATOM     32  O   UNL     1       7.164  -2.373   0.000  0.00  0.00    -0.387 OA
ATOM     33  H   UNL     1       5.755  -2.886   0.000  0.00  0.00    +0.210 HD
ENDBRANCH  31  32
TORSDOF 2