REMARK  Name = NSC 11440#2
REMARK  0 active torsions:
REMARK  status: ('A' for Active; 'I' for Inactive)
REMARK                            x       y       z     vdW  Elec       q    Type
REMARK                         _______ _______ _______ _____ _____    ______ ____
ROOT
ATOM      1 CL   UNL     1      -9.951  -5.977   0.000  0.00  0.00    -0.145 Cl
ATOM      2  H   UNL     1      -8.621  -5.977   0.000  0.00  0.00    +0.145 HD
ENDROOT
TORSDOF 0