REMARK  Name = NSC 785154
REMARK  5 active torsions:
REMARK  status: ('A' for Active; 'I' for Inactive)
REMARK    1  A    between atoms: O_1  and  C_2
REMARK    2  A    between atoms: O_1  and  C_22
REMARK    3  A    between atoms: C_3  and  O_19
REMARK    4  A    between atoms: N_8  and  C_9
REMARK    5  A    between atoms: O_19  and  C_20
REMARK                            x       y       z     vdW  Elec       q    Type
REMARK                         _______ _______ _______ _____ _____    ______ ____
ROOT
ATOM      2  C   UNL     1      -7.351   6.624   0.000  0.00  0.00    +0.170 A 
ATOM      3  C   UNL     1      -7.375   8.123   0.000  0.00  0.00    +0.162 A 
ATOM      4  C   UNL     1      -6.088   8.894   0.000  0.00  0.00    +0.053 A 
ATOM      5  C   UNL     1      -4.777   8.165   0.000  0.00  0.00    -0.033 A 
ATOM      6  C   UNL     1      -3.490   8.935   0.000  0.00  0.00    +0.055 C 
ATOM      7  C   UNL     1      -2.179   8.206   0.000  0.00  0.00    +0.109 C 
ATOM      8  N   UNL     1      -2.156   6.706   0.000  0.00  0.00    -0.332 N 
ATOM      9  C   UNL     1      -0.845   5.977   0.000  0.00  0.00    +0.129 C 
ATOM     10  C   UNL     1      -3.442   5.936   0.000  0.00  0.00    +0.038 A 
ATOM     11  C   UNL     1      -3.419   4.436   0.000  0.00  0.00    +0.032 A 
ATOM     12  C   UNL     1      -4.706   3.665   0.000  0.00  0.00    -0.015 A 
ATOM     13  C   UNL     1      -4.682   2.165   0.000  0.00  0.00    +0.008 A 
ATOM     14  C   UNL     1      -5.969   1.395   0.000  0.00  0.00    +0.001 A 
ATOM     15  C   UNL     1      -7.280   2.124   0.000  0.00  0.00    +0.001 A 
ATOM     16  C   UNL     1      -7.303   3.624   0.000  0.00  0.00    +0.009 A 
ATOM     17  C   UNL     1      -6.016   4.395   0.000  0.00  0.00    -0.006 A 
ATOM     18  C   UNL     1      -4.753   6.665   0.000  0.00  0.00    +0.011 A 
ATOM     21  C   UNL     1      -6.040   5.894   0.000  0.00  0.00    +0.037 A 
ENDROOT
BRANCH   2   1
ATOM      1  O   UNL     1      -8.638   5.853   0.000  0.00  0.00    -0.491 OA
ATOM     22  C   UNL     1      -8.614   4.353   0.000  0.00  0.00    +0.277 C 
ENDBRANCH   2   1
BRANCH   3  19
ATOM     19  O   UNL     1      -8.685   8.853   0.000  0.00  0.00    -0.491 OA
ATOM     20  C   UNL     1      -8.709  10.353   0.000  0.00  0.00    +0.277 C 
ENDBRANCH   3  19
TORSDOF 2