REMARK  Name = NSC 270914
REMARK  12 active torsions:
REMARK  status: ('A' for Active; 'I' for Inactive)
REMARK    1  A    between atoms: C_3  and  C_4
REMARK    2  A    between atoms: C_3  and  C_5
REMARK    3  A    between atoms: C_7  and  O_8
REMARK    4  A    between atoms: O_8  and  C_9
REMARK    5  A    between atoms: C_9  and  C_10
REMARK    6  A    between atoms: C_12  and  O_13
REMARK    7  A    between atoms: C_16  and  O_17
REMARK    8  A    between atoms: C_20  and  O_21
REMARK    9  A    between atoms: O_21  and  C_22
REMARK   10  A    between atoms: C_22  and  C_23
REMARK   11  A    between atoms: C_27  and  C_28
REMARK   12  A    between atoms: C_32  and  C_33
REMARK                            x       y       z     vdW  Elec       q    Type
REMARK                         _______ _______ _______ _____ _____    ______ ____
ROOT
ATOM      1  O   UNL     1      -6.289   7.328   0.000  0.00  0.00    -0.297 OA
ATOM      2  C   UNL     1      -4.805   7.548   0.000  0.00  0.00    +0.140 C 
ATOM      3  C   UNL     1      -3.873   6.372   0.000  0.00  0.00    +0.030 C 
ATOM      4  C   UNL     1      -3.400   4.949   0.000  0.00  0.00    +0.019 C 
ATOM      5  C   UNL     1      -5.193   5.659   0.000  0.00  0.00    +0.019 C 
ATOM      6  C   UNL     1      -2.389   6.592   0.000  0.00  0.00    +0.056 C 
ATOM      7  C   UNL     1      -1.457   5.416   0.000  0.00  0.00    +0.214 C 
ATOM     12  C   UNL     1       0.026   5.636   0.000  0.00  0.00    +0.189 C 
ATOM     15  C   UNL     1       0.578   7.030   0.000  0.00  0.00    +0.030 C 
ATOM     16  C   UNL     1      -0.354   8.206   0.000  0.00  0.00    -0.019 C 
ATOM     17  C   UNL     1      -1.450   9.875   0.000  0.00  0.00    +0.130 C 
ATOM     20  C   UNL     1      -2.769   9.162   0.000  0.00  0.00    +0.046 C 
ATOM     21  C   UNL     1      -0.526  11.057   0.000  0.00  0.00    +0.226 C 
ATOM     26  C   UNL     1       0.892  10.568   0.000  0.00  0.00    +0.076 C 
ATOM     27  C   UNL     1       2.386  10.711   0.000  0.00  0.00    +0.023 C 
ATOM     28  C   UNL     1       1.515  11.932   0.000  0.00  0.00    +0.004 C 
ATOM     29  C   UNL     1       0.279  12.782   0.000  0.00  0.00    +0.008 C 
ATOM     30  C   UNL     1       0.892   9.068   0.000  0.00  0.00    +0.172 C 
ATOM     31  O   UNL     1       2.388   8.953   0.000  0.00  0.00    -0.292 OA
ATOM     32  C   UNL     1      -1.837   7.986   0.000  0.00  0.00    +0.006 C 
ATOM     33  C   UNL     1      -1.286   9.381   0.000  0.00  0.00    +0.017 C 
ATOM     34  C   UNL     1      -4.253   8.942   0.000  0.00  0.00    +0.082 C 
ENDROOT
BRANCH  12  13
ATOM     13  O   UNL     1       0.958   4.460   0.000  0.00  0.00    -0.383 OA
ATOM     14  H   UNL     1       0.602   3.558   0.000  0.00  0.00    +0.210 HD
ENDBRANCH  12  13
BRANCH  17  18
ATOM     18  O   UNL     1      -2.418  11.021   0.000  0.00  0.00    -0.380 OA
ATOM     19  H   UNL     1      -2.089  11.934   0.000  0.00  0.00    +0.211 HD
ENDBRANCH  17  18
BRANCH   7   8
ATOM      8  O   UNL     1      -2.009   4.021   0.000  0.00  0.00    -0.458 OA
BRANCH   8   9
ATOM      9  C   UNL     1      -3.493   3.802   0.000  0.00  0.00    +0.304 C 
ATOM     10  C   UNL     1      -4.425   4.977   0.000  0.00  0.00    +0.136 C 
ATOM     11  O   UNL     1      -4.045   2.407   0.000  0.00  0.00    -0.251 OA
ENDBRANCH   8   9
ENDBRANCH   7   8
BRANCH  21  22
ATOM     22  O   UNL     1      -0.951  12.495   0.000  0.00  0.00    -0.457 OA
BRANCH  22  23
ATOM     23  C   UNL     1      -2.409  12.846   0.000  0.00  0.00    +0.304 C 
ATOM     24  C   UNL     1      -2.834  14.285   0.000  0.00  0.00    +0.136 C 
ATOM     25  O   UNL     1      -3.442  11.759   0.000  0.00  0.00    -0.251 OA
ENDBRANCH  22  23
ENDBRANCH  21  22
TORSDOF 6