REMARK  Name = NSC 5379
REMARK  18 active torsions:
REMARK  status: ('A' for Active; 'I' for Inactive)
REMARK    1  A    between atoms: C_1  and  C_2
REMARK    2  A    between atoms: C_2  and  C_3
REMARK    3  A    between atoms: C_3  and  C_4
REMARK    4  A    between atoms: C_4  and  C_5
REMARK    5  A    between atoms: C_5  and  C_6
REMARK    6  A    between atoms: C_6  and  C_7
REMARK    7  A    between atoms: C_7  and  C_8
REMARK    8  A    between atoms: C_8  and  C_9
REMARK    9  A    between atoms: C_9  and  C_10
REMARK   10  A    between atoms: C_10  and  C_11
REMARK   11  A    between atoms: C_11  and  C_12
REMARK   12  A    between atoms: C_12  and  C_13
REMARK   13  A    between atoms: C_13  and  C_14
REMARK   14  A    between atoms: C_14  and  C_15
REMARK   15  A    between atoms: C_15  and  C_16
REMARK   16  A    between atoms: C_16  and  C_17
REMARK   17  A    between atoms: C_17  and  C_18
REMARK   18  A    between atoms: C_18  and  O_19
REMARK                            x       y       z     vdW  Elec       q    Type
REMARK                         _______ _______ _______ _____ _____    ______ ____
ROOT
ATOM     10  C   UNL     1     -11.150   2.973   0.000  0.00  0.00    -0.000 C 
ENDROOT
BRANCH  10   9
ATOM      9  C   UNL     1     -10.400   1.674   0.000  0.00  0.00    -0.000 C 
BRANCH   9   8
ATOM      8  C   UNL     1      -8.899   1.674   0.000  0.00  0.00    -0.000 C 
BRANCH   8   7
ATOM      7  C   UNL     1      -8.149   2.973   0.000  0.00  0.00    -0.000 C 
BRANCH   7   6
ATOM      6  C   UNL     1      -6.649   2.973   0.000  0.00  0.00    -0.000 C 
BRANCH   6   5
ATOM      5  C   UNL     1      -5.899   1.674   0.000  0.00  0.00    -0.000 C 
BRANCH   5   4
ATOM      4  C   UNL     1      -4.399   1.674   0.000  0.00  0.00    -0.000 C 
BRANCH   4   3
ATOM      3  C   UNL     1      -3.650   0.375   0.000  0.00  0.00    -0.000 C 
BRANCH   3   2
ATOM      1  C   UNL     1      -1.400  -0.924   0.000  0.00  0.00    +0.004 C 
ATOM      2  C   UNL     1      -2.150   0.375   0.000  0.00  0.00    -0.003 C 
ENDBRANCH   3   2
ENDBRANCH   4   3
ENDBRANCH   5   4
ENDBRANCH   6   5
ENDBRANCH   7   6
ENDBRANCH   8   7
ENDBRANCH   9   8
ENDBRANCH  10   9
BRANCH  10  11
ATOM     11  C   UNL     1     -12.650   2.973   0.000  0.00  0.00    -0.000 C 
BRANCH  11  12
ATOM     12  C   UNL     1     -13.400   4.272   0.000  0.00  0.00    -0.000 C 
BRANCH  12  13
ATOM     13  C   UNL     1     -14.900   4.272   0.000  0.00  0.00    +0.000 C 
BRANCH  13  14
ATOM     14  C   UNL     1     -15.650   5.571   0.000  0.00  0.00    +0.000 C 
BRANCH  14  15
ATOM     15  C   UNL     1     -17.150   5.571   0.000  0.00  0.00    +0.000 C 
BRANCH  15  16
ATOM     16  C   UNL     1     -17.900   6.870   0.000  0.00  0.00    +0.002 C 
BRANCH  16  17
ATOM     17  C   UNL     1     -19.400   6.870   0.000  0.00  0.00    +0.028 C 
BRANCH  17  18
ATOM     18  C   UNL     1     -20.150   8.169   0.000  0.00  0.00    +0.156 C 
BRANCH  18  19
ATOM     19  O   UNL     1     -21.650   8.169   0.000  0.00  0.00    -0.395 OA
ATOM     20  H   UNL     1     -22.134   9.009   0.000  0.00  0.00    +0.209 HD
ENDBRANCH  18  19
ENDBRANCH  17  18
ENDBRANCH  16  17
ENDBRANCH  15  16
ENDBRANCH  14  15
ENDBRANCH  13  14
ENDBRANCH  12  13
ENDBRANCH  11  12
ENDBRANCH  10  11
TORSDOF 17