REMARK  Name = NSC 302289
REMARK  2 active torsions:
REMARK  status: ('A' for Active; 'I' for Inactive)
REMARK    1  A    between atoms: C_2  and  C_3
REMARK    2  A    between atoms: C_5  and  C_6
REMARK                            x       y       z     vdW  Elec       q    Type
REMARK                         _______ _______ _______ _____ _____    ______ ____
ROOT
ATOM      1  C   UNL     1      -5.857  -1.500   0.000  0.00  0.00    +0.056 C 
ATOM      2  C   UNL     1      -7.156  -2.250   0.000  0.00  0.00    -0.007 C 
ATOM      3  C   UNL     1      -7.156  -0.750   0.000  0.00  0.00    +0.016 C 
ATOM      4  C   UNL     1      -7.156  -3.750   0.000  0.00  0.00    -0.064 C 
ATOM      5  C   UNL     1      -8.455  -4.500   0.000  0.00  0.00    +0.012 C 
ATOM      6  C   UNL     1      -8.455  -6.000   0.000  0.00  0.00    +0.012 C 
ATOM      7  C   UNL     1      -9.754  -3.750   0.000  0.00  0.00    +0.007 C 
ATOM      8  C   UNL     1      -9.754  -2.250   0.000  0.00  0.00    +0.001 C 
ATOM      9  C   UNL     1      -5.857  -4.500   0.000  0.00  0.00    -0.015 C 
ATOM     10  C   UNL     1      -4.558  -3.750   0.000  0.00  0.00    +0.089 C 
ATOM     11  C   UNL     1      -3.132  -4.213   0.000  0.00  0.00    +0.040 C 
ATOM     12  C   UNL     1      -2.668  -5.640   0.000  0.00  0.00    +0.020 C 
ATOM     13  C   UNL     1      -2.250  -3.000   0.000  0.00  0.00    +0.336 C 
ATOM     14  O   UNL     1      -0.750  -3.000   0.000  0.00  0.00    -0.245 OA
ATOM     15  O   UNL     1      -3.132  -1.787   0.000  0.00  0.00    -0.457 OA
ATOM     16  C   UNL     1      -8.455  -1.500   0.000  0.00  0.00    +0.011 C 
ATOM     17  C   UNL     1      -4.558  -2.250   0.000  0.00  0.00    +0.189 C 
ENDROOT
TORSDOF 0