REMARK  Name = NSC 637086
REMARK  8 active torsions:
REMARK  status: ('A' for Active; 'I' for Inactive)
REMARK    1  A    between atoms: C_1  and  C_2
REMARK    2  A    between atoms: C_2  and  C_3
REMARK    3  A    between atoms: C_3  and  C_4
REMARK    4  A    between atoms: C_4  and  C_5
REMARK    5  A    between atoms: C_5  and  C_6
REMARK    6  A    between atoms: C_6  and  N_7
REMARK    7  A    between atoms: N_10  and  C_11
REMARK    8  A    between atoms: N_15  and  C_16
REMARK                            x       y       z     vdW  Elec       q    Type
REMARK                         _______ _______ _______ _____ _____    ______ ____
ROOT
ATOM      7  N   UNL     1       8.169  -0.851   0.000  0.00  0.00    -0.259 N 
ATOM      8  C   UNL     1       8.169  -2.350   0.000  0.00  0.00    +0.333 A 
ATOM      9  O   UNL     1       6.870  -3.100   0.000  0.00  0.00    -0.246 OA
ATOM     10  N   UNL     1       9.468  -3.100   0.000  0.00  0.00    -0.280 N 
ATOM     11  C   UNL     1       9.468  -4.601   0.000  0.00  0.00    +0.155 C 
ATOM     12  C   UNL     1      10.767  -2.350   0.000  0.00  0.00    +0.168 A 
ATOM     13  N   UNL     1      12.194  -2.814   0.000  0.00  0.00    -0.218 NA
ATOM     14  C   UNL     1      13.076  -1.601   0.000  0.00  0.00    +0.202 A 
ATOM     15  N   UNL     1      12.194  -0.387   0.000  0.00  0.00    -0.328 N 
ATOM     16  C   UNL     1      12.657   1.040   0.000  0.00  0.00    +0.150 C 
ATOM     17  C   UNL     1      10.767  -0.851   0.000  0.00  0.00    +0.151 A 
ATOM     18  C   UNL     1       9.468  -0.101   0.000  0.00  0.00    +0.282 A 
ATOM     19  O   UNL     1       9.468   1.400   0.000  0.00  0.00    -0.265 OA
ENDROOT
BRANCH   7   6
ATOM      6  C   UNL     1       6.870  -0.101   0.000  0.00  0.00    +0.130 C 
BRANCH   6   5
ATOM      5  C   UNL     1       6.870   1.400   0.000  0.00  0.00    +0.022 C 
BRANCH   5   4
ATOM      4  C   UNL     1       5.571   2.150   0.000  0.00  0.00    +0.009 C 
BRANCH   4   3
ATOM      3  C   UNL     1       5.571   3.650   0.000  0.00  0.00    +0.074 C 
BRANCH   3   2
ATOM      1  C   UNL     1       4.272   5.899   0.000  0.00  0.00    +0.086 C 
ATOM      2  C   UNL     1       4.272   4.399   0.000  0.00  0.00    +0.130 C 
ATOM     20  O   UNL     1       2.973   3.650   0.000  0.00  0.00    -0.298 OA
ENDBRANCH   3   2
ENDBRANCH   4   3
ENDBRANCH   5   4
ENDBRANCH   6   5
ENDBRANCH   7   6
TORSDOF 5