REMARK  Name = NSC 4143
REMARK  6 active torsions:
REMARK  status: ('A' for Active; 'I' for Inactive)
REMARK    1  A    between atoms: C_3  and  O_4
REMARK    2  A    between atoms: C_7  and  C_8
REMARK    3  A    between atoms: C_8  and  CA_9
REMARK    4  A    between atoms: CA_9  and  N_10
REMARK    5  A    between atoms: CA_9  and  C_11
REMARK    6  A    between atoms: C_11  and  OXT_12
REMARK                            x       y       z     vdW  Elec       q    Type
REMARK                         _______ _______ _______ _____ _____    ______ ____
ROOT
ATOM      1  I   UNL     1      -6.770  -4.774   0.000  0.00  0.00    -0.040 I 
ATOM      2  C   UNL     1      -5.471  -5.524   0.000  0.00  0.00    +0.056 A 
ATOM      3  C   UNL     1      -5.471  -7.024   0.000  0.00  0.00    +0.143 A 
ATOM      6  C   UNL     1      -4.172  -7.774   0.000  0.00  0.00    +0.056 A 
ATOM      7  C   UNL     1      -2.873  -7.024   0.000  0.00  0.00    +0.021 A 
ATOM      8  C   UNL     1      -2.873  -5.524   0.000  0.00  0.00    -0.043 A 
ATOM     18  I   UNL     1      -4.172  -9.274   0.000  0.00  0.00    -0.040 I 
ATOM     19  C   UNL     1      -4.172  -4.774   0.000  0.00  0.00    +0.021 A 
ENDROOT
BRANCH   3   4
ATOM      4  O   UNL     1      -6.770  -7.774   0.000  0.00  0.00    -0.505 OA
ATOM      5  H   UNL     1      -7.581  -7.306   0.000  0.00  0.00    +0.292 HD
ENDBRANCH   3   4
BRANCH   8   9
ATOM      9  C   UNL     1      -1.573  -4.774   0.000  0.00  0.00    +0.065 C 
BRANCH   9  10
ATOM     10  CA  UNL     1      -0.275  -5.524   0.000  0.00  0.00    +0.165 C 
BRANCH  10  11
ATOM     11  N   UNL     1      -0.275  -7.024   0.000  0.00  0.00    -0.318 NA
ATOM     12  H1  UNL     1       0.609  -7.534   0.000  0.00  0.00    +0.119 HD
ATOM     13  H2  UNL     1      -1.158  -7.534   0.000  0.00  0.00    +0.119 HD
ENDBRANCH  10  11
BRANCH  10  14
ATOM     14  C   UNL     1       1.025  -4.774   0.000  0.00  0.00    +0.322 C 
ATOM     17  O   UNL     1       2.324  -5.524   0.000  0.00  0.00    -0.249 OA
BRANCH  14  15
ATOM     15  OXT UNL     1       1.025  -3.275   0.000  0.00  0.00    -0.480 OA
ATOM     16  HXT UNL     1       1.836  -2.806   0.000  0.00  0.00    +0.295 HD
ENDBRANCH  14  15
ENDBRANCH  10  14
ENDBRANCH   9  10
ENDBRANCH   8   9
TORSDOF 6