REMARK  Name = NSC 785168#1
REMARK  4 active torsions:
REMARK  status: ('A' for Active; 'I' for Inactive)
REMARK    1  A    between atoms: C_1  and  O_18
REMARK    2  A    between atoms: N_6  and  C_7
REMARK    3  A    between atoms: O_18  and  C_19
REMARK    4  A    between atoms: C_20  and  O_21
REMARK                            x       y       z     vdW  Elec       q    Type
REMARK                         _______ _______ _______ _____ _____    ______ ____
ROOT
ATOM      1  C   UNL     1      -7.234   9.009   0.000  0.00  0.00    +0.162 A 
ATOM      2  C   UNL     1      -5.934   9.757   0.000  0.00  0.00    +0.053 A 
ATOM      3  C   UNL     1      -4.636   9.006   0.000  0.00  0.00    -0.033 A 
ATOM      4  C   UNL     1      -3.336   9.754   0.000  0.00  0.00    +0.055 C 
ATOM      5  C   UNL     1      -2.038   9.003   0.000  0.00  0.00    +0.109 C 
ATOM      6  N   UNL     1      -2.040   7.503   0.000  0.00  0.00    -0.332 N 
ATOM      7  C   UNL     1      -0.742   6.751   0.000  0.00  0.00    +0.129 C 
ATOM      8  C   UNL     1      -3.340   6.754   0.000  0.00  0.00    +0.038 A 
ATOM      9  C   UNL     1      -3.342   5.254   0.000  0.00  0.00    +0.032 A 
ATOM     10  C   UNL     1      -4.642   4.506   0.000  0.00  0.00    -0.015 A 
ATOM     11  C   UNL     1      -5.940   5.257   0.000  0.00  0.00    -0.006 A 
ATOM     12  C   UNL     1      -5.938   6.757   0.000  0.00  0.00    +0.037 A 
ATOM     13  C   UNL     1      -7.240   4.509   0.000  0.00  0.00    +0.009 A 
ATOM     14  C   UNL     1      -7.242   3.009   0.000  0.00  0.00    +0.001 A 
ATOM     15  C   UNL     1      -5.943   2.257   0.000  0.00  0.00    +0.001 A 
ATOM     16  C   UNL     1      -4.644   3.006   0.000  0.00  0.00    +0.008 A 
ATOM     17  C   UNL     1      -4.638   7.506   0.000  0.00  0.00    +0.011 A 
ATOM     20  C   UNL     1      -7.236   7.509   0.000  0.00  0.00    +0.167 A 
ENDROOT
BRANCH   1  18
ATOM     18  O   UNL     1      -8.532   9.761   0.000  0.00  0.00    -0.491 OA
ATOM     19  C   UNL     1      -8.531  11.261   0.000  0.00  0.00    +0.277 C 
ENDBRANCH   1  18
BRANCH  20  21
ATOM     21  O   UNL     1      -8.536   6.761   0.000  0.00  0.00    -0.503 OA
ATOM     22  H   UNL     1      -9.347   7.230   0.000  0.00  0.00    +0.292 HD
ENDBRANCH  20  21
TORSDOF 2