REMARK  Name = NSC 314018
REMARK  13 active torsions:
REMARK  status: ('A' for Active; 'I' for Inactive)
REMARK    1  A    between atoms: C_1  and  C_2
REMARK    2  A    between atoms: C_5  and  C_45
REMARK    3  A    between atoms: C_6  and  O_7
REMARK    4  A    between atoms: O_7  and  C_8
REMARK    5  A    between atoms: C_8  and  C_10
REMARK    6  A    between atoms: C_10  and  C_11
REMARK    7  A    between atoms: C_10  and  C_12
REMARK    8  A    between atoms: N_16  and  C_44
REMARK    9  A    between atoms: C_20  and  O_21
REMARK   10  A    between atoms: C_26  and  C_42
REMARK   11  A    between atoms: C_30  and  O_31
REMARK   12  A    between atoms: O_31  and  C_32
REMARK   13  A    between atoms: C_33  and  O_34
REMARK                            x       y       z     vdW  Elec       q    Type
REMARK                         _______ _______ _______ _____ _____    ______ ____
ROOT
ATOM      1  C   UNL     1       6.389 -13.649   0.000  0.00  0.00    +0.014 C 
ATOM      2  C   UNL     1       4.903 -13.443   0.000  0.00  0.00    +0.059 C 
ATOM      3  C   UNL     1       4.455 -14.874   0.000  0.00  0.00    +0.161 C 
ATOM      4  O   UNL     1       5.058 -16.248   0.000  0.00  0.00    -0.361 OA
ATOM      5  C   UNL     1       3.567 -16.083   0.000  0.00  0.00    +0.131 C 
ATOM      6  C   UNL     1       2.334 -16.938   0.000  0.00  0.00    +0.219 C 
ATOM     13  C   UNL     1       0.891 -17.346   0.000  0.00  0.00    +0.144 C 
ATOM     14  C   UNL     1      -0.607 -17.263   0.000  0.00  0.00    +0.223 C 
ATOM     15  O   UNL     1      -0.935 -18.727   0.000  0.00  0.00    -0.275 OA
ATOM     16  N   UNL     1      -1.996 -16.699   0.000  0.00  0.00    -0.273 N 
ATOM     17  C   UNL     1      -3.127 -15.714   0.000  0.00  0.00    +0.058 A 
ATOM     18  C   UNL     1      -4.532 -16.240   0.000  0.00  0.00    +0.104 A 
ATOM     19 CL   UNL     1      -4.779 -17.719   0.000  0.00  0.00    -0.078 Cl
ATOM     20  C   UNL     1      -5.690 -15.286   0.000  0.00  0.00    +0.137 A 
ATOM     23  C   UNL     1      -5.443 -13.806   0.000  0.00  0.00    +0.051 A 
ATOM     24  C   UNL     1      -4.165 -12.942   0.000  0.00  0.00    -0.038 A 
ATOM     25  C   UNL     1      -3.959 -11.457   0.000  0.00  0.00    +0.065 C 
ATOM     26  C   UNL     1      -3.282 -10.118   0.000  0.00  0.00    -0.068 C 
ATOM     27  C   UNL     1      -1.996  -9.377   0.000  0.00  0.00    -0.001 C 
ATOM     28  C   UNL     1      -0.850  -8.432   0.000  0.00  0.00    -0.002 C 
ATOM     29  C   UNL     1       0.614  -8.760   0.000  0.00  0.00    +0.009 C 
ATOM     30  C   UNL     1       2.104  -8.595   0.000  0.00  0.00    +0.191 C 
ATOM     33  C   UNL     1       3.382  -9.380   0.000  0.00  0.00    +0.168 C 
ATOM     36  N   UNL     1       4.681  -8.630   0.000  0.00  0.00    -0.250 N 
ATOM     37  H   UNL     1       4.681  -7.130   0.000  0.00  0.00    +0.155 HD
ATOM     38  C   UNL     1       5.981  -9.380   0.000  0.00  0.00    +0.403 C 
ATOM     39  O   UNL     1       5.981 -10.881   0.000  0.00  0.00    -0.447 OA
ATOM     40  O   UNL     1       7.279  -8.630   0.000  0.00  0.00    -0.226 OA
ATOM     41  C   UNL     1       3.382 -11.089   0.000  0.00  0.00    +0.103 C 
ATOM     42  C   UNL     1      -4.490  -9.230   0.000  0.00  0.00    +0.039 C 
ATOM     43  C   UNL     1      -2.846 -14.028   0.000  0.00  0.00    +0.029 A 
ATOM     44  C   UNL     1      -2.782 -17.977   0.000  0.00  0.00    +0.138 C 
ATOM     45  C   UNL     1       2.521 -15.008   0.000  0.00  0.00    +0.048 C 
ATOM     46  C   UNL     1       4.862 -11.943   0.000  0.00  0.00    +0.188 C 
ENDROOT
BRANCH  20  21
ATOM     21  O   UNL     1      -7.095 -15.812   0.000  0.00  0.00    -0.505 OA
ATOM     22  H   UNL     1      -8.253 -14.858   0.000  0.00  0.00    +0.292 HD
ENDBRANCH  20  21
BRANCH  30  31
ATOM     31  O   UNL     1       2.669  -7.205   0.000  0.00  0.00    -0.371 OA
ATOM     32  C   UNL     1       1.748  -6.022   0.000  0.00  0.00    +0.195 C 
ENDBRANCH  30  31
BRANCH  33  34
ATOM     34  O   UNL     1       3.403  -7.881   0.000  0.00  0.00    -0.369 OA
ATOM     35  H   UNL     1       4.565  -6.932   0.000  0.00  0.00    +0.212 HD
ENDBRANCH  33  34
BRANCH   6   7
ATOM      7  O   UNL     1       2.975 -18.294   0.000  0.00  0.00    -0.458 OA
BRANCH   7   8
ATOM      8  C   UNL     1       2.120 -19.527   0.000  0.00  0.00    +0.310 C 
ATOM      9  O   UNL     1       0.625 -19.403   0.000  0.00  0.00    -0.251 OA
BRANCH   8  10
ATOM     10  C   UNL     1       2.760 -20.883   0.000  0.00  0.00    +0.092 C 
ATOM     11  C   UNL     1       4.255 -21.007   0.000  0.00  0.00    +0.019 C 
ATOM     12  C   UNL     1       1.905 -22.116   0.000  0.00  0.00    +0.019 C 
ENDBRANCH   8  10
ENDBRANCH   7   8
ENDBRANCH   6   7
TORSDOF 6