REMARK  Name = NSC 661755#2
REMARK  2 active torsions:
REMARK  status: ('A' for Active; 'I' for Inactive)
REMARK    1  A    between atoms: C_1  and  C_2
REMARK    2  A    between atoms: C_2  and  O_3
REMARK                            x       y       z     vdW  Elec       q    Type
REMARK                         _______ _______ _______ _____ _____    ______ ____
ROOT
ATOM      1  C   UNL     1      19.750  -2.012   0.000  0.00  0.00    +0.136 C 
ATOM      2  C   UNL     1      18.250  -2.012   0.000  0.00  0.00    +0.302 C 
ATOM      5  O   UNL     1      17.500  -3.311   0.000  0.00  0.00    -0.251 OA
ENDROOT
BRANCH   2   3
ATOM      3  O   UNL     1      17.500  -0.713   0.000  0.00  0.00    -0.481 OA
ATOM      4  H   UNL     1      17.969   0.098   0.000  0.00  0.00    +0.295 HD
ENDBRANCH   2   3
TORSDOF 1