REMARK  Name = NSC 36294
REMARK  7 active torsions:
REMARK  status: ('A' for Active; 'I' for Inactive)
REMARK    1  A    between atoms: C_4  and  O_5
REMARK    2  A    between atoms: C_6  and  C_7
REMARK    3  A    between atoms: C_7  and  C_8
REMARK    4  A    between atoms: C_10  and  O_11
REMARK    5  A    between atoms: O_11  and  C_12
REMARK    6  A    between atoms: C_16  and  C_17
REMARK    7  A    between atoms: C_16  and  C_18
REMARK                            x       y       z     vdW  Elec       q    Type
REMARK                         _______ _______ _______ _____ _____    ______ ____
ROOT
ATOM      1  O   UNL     1      -0.620  -4.224   0.000  0.00  0.00    -0.481 OA
ATOM      2  C   UNL     1      -1.919  -4.974   0.000  0.00  0.00    +0.136 A 
ATOM      3  C   UNL     1      -3.218  -4.224   0.000  0.00  0.00    +0.092 A 
ATOM      4  C   UNL     1      -4.517  -4.974   0.000  0.00  0.00    +0.134 A 
ATOM      7  C   UNL     1      -4.517  -6.474   0.000  0.00  0.00    +0.101 A 
ATOM     11  C   UNL     1      -3.218  -7.224   0.000  0.00  0.00    +0.145 A 
ATOM     14  C   UNL     1      -1.919  -6.474   0.000  0.00  0.00    +0.059 A 
ATOM     15  C   UNL     1      -0.620  -7.224   0.000  0.00  0.00    +0.015 C 
ATOM     16  C   UNL     1       0.679  -6.474   0.000  0.00  0.00    +0.020 C 
ATOM     17  C   UNL     1       0.679  -4.974   0.000  0.00  0.00    +0.124 C 
ATOM     18  C   UNL     1       2.156  -5.234   0.000  0.00  0.00    +0.060 C 
ATOM     19  C   UNL     1       1.192  -3.564   0.000  0.00  0.00    +0.060 C 
ENDROOT
BRANCH   7   8
ATOM      8  C   UNL     1      -5.816  -7.224   0.000  0.00  0.00    +0.167 C 
ATOM      9  C   UNL     1      -5.816  -8.724   0.000  0.00  0.00    +0.092 C 
ATOM     10  O   UNL     1      -7.115  -6.474   0.000  0.00  0.00    -0.292 OA
ENDBRANCH   7   8
BRANCH   4   5
ATOM      5  O   UNL     1      -5.816  -4.224   0.000  0.00  0.00    -0.506 OA
ATOM      6  H   UNL     1      -5.816  -3.287   0.000  0.00  0.00    +0.292 HD
ENDBRANCH   4   5
BRANCH  11  12
ATOM     12  O   UNL     1      -3.218  -8.724   0.000  0.00  0.00    -0.494 OA
ATOM     13  C   UNL     1      -4.517  -9.474   0.000  0.00  0.00    +0.277 C 
ENDBRANCH  11  12
TORSDOF 3