REMARK  Name = NSC 123383
REMARK  6 active torsions:
REMARK  status: ('A' for Active; 'I' for Inactive)
REMARK    1  A    between atoms: C_4  and  O_5
REMARK    2  A    between atoms: C_12  and  C_13
REMARK    3  A    between atoms: C_16  and  O_17
REMARK    4  A    between atoms: O_17  and  C_18
REMARK    5  A    between atoms: C_19  and  O_20
REMARK    6  A    between atoms: O_20  and  C_21
REMARK                            x       y       z     vdW  Elec       q    Type
REMARK                         _______ _______ _______ _____ _____    ______ ____
ROOT
ATOM      1  O   UNL     1      -8.819   1.226   0.000  0.00  0.00    -0.454 OA
ATOM      2  C   UNL     1     -10.118   1.976   0.000  0.00  0.00    +0.143 A 
ATOM      3  C   UNL     1     -10.118   3.475   0.000  0.00  0.00    +0.092 A 
ATOM      4  C   UNL     1     -11.417   4.226   0.000  0.00  0.00    +0.120 A 
ATOM      7  C   UNL     1     -12.716   3.475   0.000  0.00  0.00    +0.046 A 
ATOM      8  C   UNL     1     -12.716   1.976   0.000  0.00  0.00    +0.019 A 
ATOM      9  C   UNL     1     -11.417   1.226   0.000  0.00  0.00    +0.064 A 
ATOM     10  C   UNL     1     -11.417  -0.275   0.000  0.00  0.00    +0.193 A 
ATOM     11  C   UNL     1     -10.118  -1.025   0.000  0.00  0.00    +0.098 A 
ATOM     12  O   UNL     1     -12.716  -1.025   0.000  0.00  0.00    -0.287 OA
ATOM     13  C   UNL     1      -8.819  -0.275   0.000  0.00  0.00    +0.139 A 
ENDROOT
BRANCH  13  14
ATOM     14  C   UNL     1      -7.520  -1.025   0.000  0.00  0.00    +0.021 A 
ATOM     15  C   UNL     1      -7.520  -2.525   0.000  0.00  0.00    +0.015 A 
ATOM     16  C   UNL     1      -6.221  -3.275   0.000  0.00  0.00    +0.050 A 
ATOM     17  C   UNL     1      -4.922  -2.525   0.000  0.00  0.00    +0.162 A 
ATOM     20  C   UNL     1      -4.922  -1.025   0.000  0.00  0.00    +0.162 A 
ATOM     23  C   UNL     1      -6.221  -0.275   0.000  0.00  0.00    +0.061 A 
BRANCH  17  18
ATOM     18  O   UNL     1      -3.623  -3.275   0.000  0.00  0.00    -0.491 OA
ATOM     19  C   UNL     1      -2.324  -2.525   0.000  0.00  0.00    +0.277 C 
ENDBRANCH  17  18
BRANCH  20  21
ATOM     21  O   UNL     1      -3.623  -0.275   0.000  0.00  0.00    -0.491 OA
ATOM     22  C   UNL     1      -2.324  -1.025   0.000  0.00  0.00    +0.277 C 
ENDBRANCH  20  21
ENDBRANCH  13  14
BRANCH   4   5
ATOM      5  O   UNL     1     -11.417   5.726   0.000  0.00  0.00    -0.507 OA
ATOM      6  H   UNL     1     -10.605   6.194   0.000  0.00  0.00    +0.292 HD
ENDBRANCH   4   5
TORSDOF 4