REMARK  Name = NSC 218321
REMARK  5 active torsions:
REMARK  status: ('A' for Active; 'I' for Inactive)
REMARK    1  A    between atoms: C5*_1  and  O5*_2
REMARK    2  A    between atoms: C5*_1  and  C4*_3
REMARK    3  A    between atoms: C3*_4  and  O3*_5
REMARK    4  A    between atoms: C1*_7  and  N_8
REMARK    5  A    between atoms: C_11  and  O_12
REMARK                            x       y       z     vdW  Elec       q    Type
REMARK                         _______ _______ _______ _____ _____    ______ ____
ROOT
ATOM     10  N   UNL     1       0.925  -0.081   0.000  0.00  0.00    -0.288 N 
ATOM     11  C   UNL     1      -0.004   1.097   0.000  0.00  0.00    +0.162 A 
ATOM     12  C   UNL     1       0.830   2.344   0.000  0.00  0.00    +0.115 A 
ATOM     13  C   UNL     1       0.374   3.773   0.000  0.00  0.00    +0.183 C 
ATOM     16  C   UNL     1      -1.027   4.308   0.000  0.00  0.00    +0.140 C 
ATOM     17  N   UNL     1      -2.319   3.546   0.000  0.00  0.00    -0.332 N 
ATOM     18  H   UNL     1      -3.138   4.093   0.000  0.00  0.00    +0.147 HD
ATOM     19  C   UNL     1      -2.529   2.061   0.000  0.00  0.00    +0.184 C 
ATOM     20  N   UNL     1       2.273   1.937   0.000  0.00  0.00    -0.236 NA
ATOM     21  N   UNL     1      -1.498   0.971   0.000  0.00  0.00    -0.221 NA
ATOM     22  C   UNL     1       2.332   0.438   0.000  0.00  0.00    +0.203 A 
ENDROOT
BRANCH  10   9
ATOM      4  C4* UNL     1      -0.830  -3.543   0.000  0.00  0.00    +0.175 C 
ATOM      5  C3* UNL     1       0.614  -3.950   0.000  0.00  0.00    +0.150 C 
ATOM      8  C2* UNL     1       1.447  -2.703   0.000  0.00  0.00    +0.088 C 
ATOM      9  C1* UNL     1       0.518  -1.525   0.000  0.00  0.00    +0.225 C 
ATOM     23  O4* UNL     1      -0.889  -2.044   0.000  0.00  0.00    -0.348 OA
BRANCH   5   6
ATOM      6  O3* UNL     1       1.133  -5.357   0.000  0.00  0.00    -0.389 OA
ATOM      7  H3* UNL     1       0.512  -6.103   0.000  0.00  0.00    +0.210 HD
ENDBRANCH   5   6
BRANCH   4   1
ATOM      1  C5* UNL     1      -2.008  -4.472   0.000  0.00  0.00    +0.190 C 
BRANCH   1   2
ATOM      2  O5* UNL     1      -1.793  -5.956   0.000  0.00  0.00    -0.392 OA
ATOM      3  H5* UNL     1      -2.554  -6.557   0.000  0.00  0.00    +0.210 HD
ENDBRANCH   1   2
ENDBRANCH   4   1
ENDBRANCH  10   9
BRANCH  13  14
ATOM     14  O   UNL     1       1.869   3.899   0.000  0.00  0.00    -0.384 OA
ATOM     15  H   UNL     1       2.423   3.103   0.000  0.00  0.00    +0.210 HD
ENDBRANCH  13  14
TORSDOF 5