REMARK  Name = NSC 76022#1
REMARK  9 active torsions:
REMARK  status: ('A' for Active; 'I' for Inactive)
REMARK    1  A    between atoms: C_3  and  O_4
REMARK    2  A    between atoms: O_4  and  C_5
REMARK    3  A    between atoms: C_14  and  C_15
REMARK    4  A    between atoms: C_15  and  C_16
REMARK    5  A    between atoms: C_16  and  N_17
REMARK    6  A    between atoms: N_17  and  C_18
REMARK    7  A    between atoms: N_17  and  C_19
REMARK    8  A    between atoms: C_21  and  O_22
REMARK    9  A    between atoms: O_22  and  C_23
REMARK                            x       y       z     vdW  Elec       q    Type
REMARK                         _______ _______ _______ _____ _____    ______ ____
ROOT
ATOM      1  O   UNL     1      -2.900 -11.022   0.000  0.00  0.00    -0.418 OA
ATOM      2  C   UNL     1      -2.900 -12.522   0.000  0.00  0.00    +0.182 A 
ATOM      3  C   UNL     1      -4.199 -13.272   0.000  0.00  0.00    +0.163 A 
ATOM      6  C   UNL     1      -4.199 -14.772   0.000  0.00  0.00    +0.050 A 
ATOM      7  C   UNL     1      -2.900 -15.522   0.000  0.00  0.00    +0.019 A 
ATOM      8  C   UNL     1      -1.601 -14.772   0.000  0.00  0.00    +0.071 A 
ATOM      9  C   UNL     1      -0.301 -15.522   0.000  0.00  0.00    +0.345 A 
ATOM     10  O   UNL     1       0.998 -14.772   0.000  0.00  0.00    -0.418 OA
ATOM     11  C   UNL     1       0.998 -13.272   0.000  0.00  0.00    +0.182 A 
ATOM     12  C   UNL     1      -0.301 -12.522   0.000  0.00  0.00    +0.047 A 
ATOM     13  C   UNL     1      -0.301 -11.022   0.000  0.00  0.00    +0.074 A 
ATOM     14  C   UNL     1       0.998 -10.272   0.000  0.00  0.00    -0.028 A 
ATOM     20  C   UNL     1       2.297 -11.022   0.000  0.00  0.00    +0.054 A 
ATOM     21  C   UNL     1       2.297 -12.522   0.000  0.00  0.00    +0.163 A 
ATOM     24  O   UNL     1      -0.301 -17.022   0.000  0.00  0.00    -0.245 OA
ATOM     25  C   UNL     1      -1.601 -13.272   0.000  0.00  0.00    +0.047 A 
ATOM     26  C   UNL     1      -1.601 -10.272   0.000  0.00  0.00    +0.346 A 
ATOM     27  O   UNL     1      -1.601  -8.772   0.000  0.00  0.00    -0.244 OA
ENDROOT
BRANCH   3   4
ATOM      4  O   UNL     1      -5.498 -12.522   0.000  0.00  0.00    -0.491 OA
ATOM      5  C   UNL     1      -6.797 -13.272   0.000  0.00  0.00    +0.277 C 
ENDBRANCH   3   4
BRANCH  21  22
ATOM     22  O   UNL     1       3.596 -13.272   0.000  0.00  0.00    -0.491 OA
ATOM     23  C   UNL     1       4.895 -12.522   0.000  0.00  0.00    +0.277 C 
ENDBRANCH  21  22
BRANCH  14  15
ATOM     15  C   UNL     1       0.998  -8.772   0.000  0.00  0.00    +0.051 C 
BRANCH  15  16
ATOM     16  C   UNL     1      -0.301  -8.022   0.000  0.00  0.00    +0.088 C 
BRANCH  16  17
ATOM     17  N   UNL     1      -0.301  -6.522   0.000  0.00  0.00    -0.308 NA
ATOM     18  C   UNL     1       0.998  -5.772   0.000  0.00  0.00    +0.104 C 
ATOM     19  C   UNL     1      -1.601  -5.772   0.000  0.00  0.00    +0.104 C 
ENDBRANCH  16  17
ENDBRANCH  15  16
ENDBRANCH  14  15
TORSDOF 5