REMARK  Name = NSC 339555
REMARK  26 active torsions:
REMARK  status: ('A' for Active; 'I' for Inactive)
REMARK    1  A    between atoms: O_1  and  C_3
REMARK    2  A    between atoms: C_4  and  C_55
REMARK    3  A    between atoms: C_4  and  C_56
REMARK    4  A    between atoms: C_13  and  O_47
REMARK    5  A    between atoms: C_17  and  O_18
REMARK    6  A    between atoms: O_18  and  C_19
REMARK    7  A    between atoms: C_19  and  C_21
REMARK    8  A    between atoms: C_23  and  O_24
REMARK    9  A    between atoms: C_30  and  C_31
REMARK   10  A    between atoms: C_31  and  O_32
REMARK   11  A    between atoms: C_31  and  C_34
REMARK   12  A    between atoms: C_39  and  C_40
REMARK   13  A    between atoms: C_40  and  O_42
REMARK   14  A    between atoms: O_42  and  C_43
REMARK   15  A    between atoms: C_44  and  C_45
REMARK   16  A    between atoms: C_44  and  C_46
REMARK   17  A    between atoms: C_49  and  C_50
REMARK   18  A    between atoms: C_50  and  O_52
REMARK   19  A    between atoms: O_52  and  C_53
REMARK   20  A    between atoms: C_58  and  O_59
REMARK   21  A    between atoms: O_59  and  C_60
REMARK   22  A    between atoms: C_60  and  C_62
REMARK   23  A    between atoms: C_63  and  C_64
REMARK   24  A    between atoms: C_65  and  C_66
REMARK   25  A    between atoms: C_66  and  C_67
REMARK   26  A    between atoms: C_67  and  C_68
REMARK                            x       y       z     vdW  Elec       q    Type
REMARK                         _______ _______ _______ _____ _____    ______ ____
ROOT
ATOM      3  C   UNL     1       4.996 -14.646   0.000  0.00  0.00    +0.218 C 
ATOM      4  C   UNL     1       3.556 -15.065   0.000  0.00  0.00    +0.041 C 
ATOM      5  C   UNL     1       3.324 -16.547   0.000  0.00  0.00    -0.017 C 
ATOM      6  C   UNL     1       1.936 -15.978   0.000  0.00  0.00    +0.001 C 
ATOM      7  C   UNL     1       0.882 -17.045   0.000  0.00  0.00    +0.145 C 
ATOM      8  C   UNL     1      -0.466 -17.725   0.000  0.00  0.00    +0.067 C 
ATOM      9  C   UNL     1      -0.346 -19.220   0.000  0.00  0.00    -0.058 C 
ATOM     10  C   UNL     1       0.992 -19.899   0.000  0.00  0.00    +0.062 C 
ATOM     11  C   UNL     1       2.270 -19.115   0.000  0.00  0.00    +0.128 C 
ATOM     12  C   UNL     1       2.448 -20.604   0.000  0.00  0.00    +0.097 C 
ATOM     13  C   UNL     1       3.620 -21.539   0.000  0.00  0.00    +0.178 C 
ATOM     14  O   UNL     1       4.026 -22.983   0.000  0.00  0.00    -0.345 OA
ATOM     15  C   UNL     1       5.506 -23.230   0.000  0.00  0.00    +0.128 C 
ATOM     16  C   UNL     1       4.432 -24.428   0.000  0.00  0.00    +0.077 C 
ATOM     17  C   UNL     1       2.979 -24.057   0.000  0.00  0.00    +0.190 C 
ATOM     22  C   UNL     1       6.358 -21.996   0.000  0.00  0.00    +0.063 C 
ATOM     23  C   UNL     1       7.771 -21.491   0.000  0.00  0.00    +0.128 C 
ATOM     26  C   UNL     1       8.421 -20.140   0.000  0.00  0.00    +0.152 C 
ATOM     27  C   UNL     1       9.919 -20.051   0.000  0.00  0.00    +0.310 C 
ATOM     28  O   UNL     1      10.826 -21.245   0.000  0.00  0.00    -0.251 OA
ATOM     29  O   UNL     1      10.405 -18.632   0.000  0.00  0.00    -0.459 OA
ATOM     30  C   UNL     1       9.754 -17.280   0.000  0.00  0.00    +0.207 C 
ATOM     35  C   UNL     1       8.257 -17.369   0.000  0.00  0.00    +0.079 C 
ATOM     36  C   UNL     1       7.451 -16.104   0.000  0.00  0.00    +0.129 C 
ATOM     37  C   UNL     1       7.770 -14.563   0.000  0.00  0.00    +0.066 C 
ATOM     38  C   UNL     1       7.092 -13.225   0.000  0.00  0.00    -0.015 C 
ATOM     39  C   UNL     1       7.859 -11.935   0.000  0.00  0.00    +0.094 C 
ATOM     44  C   UNL     1       2.573 -22.613   0.000  0.00  0.00    +0.056 C 
ATOM     45  C   UNL     1       1.698 -21.395   0.000  0.00  0.00    +0.020 C 
ATOM     46  C   UNL     1       1.221 -23.263   0.000  0.00  0.00    +0.020 C 
ATOM     49  C   UNL     1      -1.592 -20.055   0.000  0.00  0.00    +0.091 C 
ATOM     54  O   UNL     1       0.882 -18.545   0.000  0.00  0.00    -0.369 OA
ATOM     55  C   UNL     1       3.351 -13.579   0.000  0.00  0.00    +0.021 C 
ATOM     56  C   UNL     1       2.056 -15.052   0.000  0.00  0.00    +0.021 C 
ATOM     57  O   UNL     1       5.988 -15.770   0.000  0.00  0.00    -0.341 OA
ATOM     58  C   UNL     1       5.593 -13.269   0.000  0.00  0.00    +0.263 C 
ENDROOT
BRANCH   3   1
ATOM      1  O   UNL     1       3.707 -12.533   0.000  0.00  0.00    -0.361 OA
ATOM      2  H   UNL     1       2.207 -12.570   0.000  0.00  0.00    +0.213 HD
ENDBRANCH   3   1
BRANCH  23  24
ATOM     24  O   UNL     1       8.774 -22.606   0.000  0.00  0.00    -0.391 OA
ATOM     25  H   UNL     1       8.309 -24.033   0.000  0.00  0.00    +0.210 HD
ENDBRANCH  23  24
BRANCH  30  31
ATOM     31  C   UNL     1      10.514 -15.987   0.000  0.00  0.00    +0.152 C 
ATOM     34  C   UNL     1       9.774 -14.682   0.000  0.00  0.00    +0.041 C 
BRANCH  31  32
ATOM     32  O   UNL     1      12.014 -15.999   0.000  0.00  0.00    -0.388 OA
ATOM     33  H   UNL     1      12.774 -14.706   0.000  0.00  0.00    +0.210 HD
ENDBRANCH  31  32
ENDBRANCH  30  31
BRANCH  39  40
ATOM     40  C   UNL     1       9.358 -11.954   0.000  0.00  0.00    +0.332 C 
ATOM     41  O   UNL     1      10.092 -13.262   0.000  0.00  0.00    -0.246 OA
BRANCH  40  42
ATOM     42  O   UNL     1      10.125 -10.665   0.000  0.00  0.00    -0.465 OA
ATOM     43  C   UNL     1      11.625 -10.684   0.000  0.00  0.00    +0.280 C 
ENDBRANCH  40  42
ENDBRANCH  39  40
BRANCH  13  47
ATOM     47  O   UNL     1       4.870 -20.710   0.000  0.00  0.00    -0.364 OA
ATOM     48  H   UNL     1       4.777 -19.213   0.000  0.00  0.00    +0.213 HD
ENDBRANCH  13  47
BRANCH  49  50
ATOM     50  C   UNL     1      -2.938 -19.394   0.000  0.00  0.00    +0.332 C 
ATOM     51  O   UNL     1      -4.184 -20.230   0.000  0.00  0.00    -0.246 OA
BRANCH  50  52
ATOM     52  O   UNL     1      -3.039 -17.898   0.000  0.00  0.00    -0.465 OA
ATOM     53  C   UNL     1      -1.793 -17.062   0.000  0.00  0.00    +0.280 C 
ENDBRANCH  50  52
ENDBRANCH  49  50
BRANCH  17  18
ATOM     18  O   UNL     1       1.931 -25.131   0.000  0.00  0.00    -0.461 OA
BRANCH  18  19
ATOM     19  C   UNL     1       2.337 -26.575   0.000  0.00  0.00    +0.304 C 
ATOM     20  O   UNL     1       3.790 -26.945   0.000  0.00  0.00    -0.251 OA
ATOM     21  C   UNL     1       1.289 -27.648   0.000  0.00  0.00    +0.136 C 
ENDBRANCH  18  19
ENDBRANCH  17  18
BRANCH  58  59
ATOM     59  O   UNL     1       4.751 -12.028   0.000  0.00  0.00    -0.448 OA
BRANCH  59  60
ATOM     60  C   UNL     1       5.406 -10.678   0.000  0.00  0.00    +0.333 C 
ATOM     61  O   UNL     1       6.902 -10.570   0.000  0.00  0.00    -0.246 OA
BRANCH  60  62
ATOM     62  C   UNL     1       4.564  -9.436   0.000  0.00  0.00    +0.091 C 
ATOM     63  C   UNL     1       5.219  -8.087   0.000  0.00  0.00    +0.007 C 
BRANCH  63  64
ATOM     64  C   UNL     1       4.377  -6.845   0.000  0.00  0.00    -0.004 C 
ATOM     65  C   UNL     1       5.032  -5.495   0.000  0.00  0.00    -0.027 C 
BRANCH  65  66
ATOM     66  C   UNL     1       4.190  -4.254   0.000  0.00  0.00    +0.027 C 
BRANCH  66  67
ATOM     67  C   UNL     1       4.844  -2.904   0.000  0.00  0.00    +0.001 C 
ATOM     68  C   UNL     1       4.003  -1.662   0.000  0.00  0.00    +0.004 C 
ENDBRANCH  66  67
ENDBRANCH  65  66
ENDBRANCH  63  64
ENDBRANCH  60  62
ENDBRANCH  59  60
ENDBRANCH  58  59
TORSDOF 17