REMARK  Name = NSC 36354#1
REMARK  9 active torsions:
REMARK  status: ('A' for Active; 'I' for Inactive)
REMARK    1  A    between atoms: C_3  and  O_4
REMARK    2  A    between atoms: O_4  and  C_5
REMARK    3  A    between atoms: C_10  and  N_11
REMARK    4  A    between atoms: C_16  and  O_17
REMARK    5  A    between atoms: O_17  and  C_18
REMARK    6  A    between atoms: C_19  and  O_20
REMARK    7  A    between atoms: O_20  and  C_21
REMARK    8  A    between atoms: C_22  and  O_23
REMARK    9  A    between atoms: O_23  and  C_24
REMARK                            x       y       z     vdW  Elec       q    Type
REMARK                         _______ _______ _______ _____ _____    ______ ____
ROOT
ATOM      1  O   UNL     1      17.369  -3.181   0.000  0.00  0.00    -0.284 OA
ATOM      2  C   UNL     1      16.018  -2.530   0.000  0.00  0.00    +0.221 A 
ATOM      3  C   UNL     1      14.845  -3.465   0.000  0.00  0.00    +0.167 A 
ATOM      6  C   UNL     1      13.383  -3.132   0.000  0.00  0.00    +0.050 A 
ATOM      7  C   UNL     1      12.732  -1.780   0.000  0.00  0.00    +0.012 A 
ATOM      8  C   UNL     1      13.383  -0.429   0.000  0.00  0.00    -0.009 A 
ATOM      9  C   UNL     1      14.845  -0.095   0.000  0.00  0.00    -0.019 A 
ATOM     10  C   UNL     1      15.496   1.257   0.000  0.00  0.00    +0.082 C 
ATOM     14  C   UNL     1      14.845   2.608   0.000  0.00  0.00    +0.028 C 
ATOM     15  C   UNL     1      13.383   2.942   0.000  0.00  0.00    +0.038 C 
ATOM     16  C   UNL     1      12.210   2.007   0.000  0.00  0.00    -0.032 A 
ATOM     17  C   UNL     1      10.911   2.757   0.000  0.00  0.00    +0.054 A 
ATOM     18  C   UNL     1       9.612   2.007   0.000  0.00  0.00    +0.165 A 
ATOM     21  C   UNL     1       9.612   0.507   0.000  0.00  0.00    +0.204 A 
ATOM     24  C   UNL     1      10.911  -0.243   0.000  0.00  0.00    +0.173 A 
ATOM     27  C   UNL     1      12.210   0.507   0.000  0.00  0.00    +0.031 A 
ATOM     28  C   UNL     1      16.018  -1.030   0.000  0.00  0.00    +0.060 A 
ENDROOT
BRANCH  10  11
ATOM     11  N   UNL     1      16.996   1.257   0.000  0.00  0.00    -0.324 NA
ATOM     12  H   UNL     1      17.506   2.140   0.000  0.00  0.00    +0.119 HD
ATOM     13  H   UNL     1      17.506   0.373   0.000  0.00  0.00    +0.119 HD
ENDBRANCH  10  11
BRANCH   3   4
ATOM      4  O   UNL     1      15.179  -4.928   0.000  0.00  0.00    -0.491 OA
ATOM      5  C   UNL     1      14.079  -5.948   0.000  0.00  0.00    +0.277 C 
ENDBRANCH   3   4
BRANCH  18  19
ATOM     19  O   UNL     1       8.313   2.757   0.000  0.00  0.00    -0.491 OA
ATOM     20  C   UNL     1       7.014   2.007   0.000  0.00  0.00    +0.277 C 
ENDBRANCH  18  19
BRANCH  21  22
ATOM     22  O   UNL     1       8.313  -0.243   0.000  0.00  0.00    -0.488 OA
ATOM     23  C   UNL     1       7.014   0.507   0.000  0.00  0.00    +0.277 C 
ENDBRANCH  21  22
BRANCH  24  25
ATOM     25  O   UNL     1      10.911  -1.743   0.000  0.00  0.00    -0.491 OA
ATOM     26  C   UNL     1       9.612  -2.493   0.000  0.00  0.00    +0.277 C 
ENDBRANCH  24  25
TORSDOF 5