REMARK  Name = NSC 100290#1
REMARK  15 active torsions:
REMARK  status: ('A' for Active; 'I' for Inactive)
REMARK    1  A    between atoms: C_7  and  C_8
REMARK    2  A    between atoms: C_8  and  O_9
REMARK    3  A    between atoms: O_9  and  C_10
REMARK    4  A    between atoms: C_12  and  O_13
REMARK    5  A    between atoms: C_12  and  C_14
REMARK    6  A    between atoms: C_14  and  C_15
REMARK    7  A    between atoms: C_17  and  O_18
REMARK    8  A    between atoms: O_18  and  C_19
REMARK    9  A    between atoms: C_21  and  N_22
REMARK   10  A    between atoms: N_22  and  C_23
REMARK   11  A    between atoms: N_22  and  C_24
REMARK   12  A    between atoms: C_25  and  O_26
REMARK   13  A    between atoms: C_27  and  C_28
REMARK   14  A    between atoms: C_31  and  O_32
REMARK   15  A    between atoms: C_38  and  O_39
REMARK                            x       y       z     vdW  Elec       q    Type
REMARK                         _______ _______ _______ _____ _____    ______ ____
ROOT
ATOM      1  C   UNL     1      -2.324   7.024   0.000  0.00  0.00    +0.012 A 
ATOM      2  C   UNL     1      -1.025   7.774   0.000  0.00  0.00    +0.037 A 
ATOM      3  C   UNL     1       0.275   7.024   0.000  0.00  0.00    +0.195 C 
ATOM      4  C   UNL     1       1.573   7.774   0.000  0.00  0.00    +0.037 A 
ATOM      5  C   UNL     1       2.873   7.024   0.000  0.00  0.00    +0.017 A 
ATOM      6  C   UNL     1       4.172   7.774   0.000  0.00  0.00    -0.021 A 
ATOM      7  C   UNL     1       5.471   7.024   0.000  0.00  0.00    +0.160 C 
ATOM     12  C   UNL     1       6.770   7.774   0.000  0.00  0.00    +0.085 C 
ATOM     17  C   UNL     1       6.770   9.274   0.000  0.00  0.00    +0.072 C 
ATOM     18  C   UNL     1       5.471  10.025   0.000  0.00  0.00    +0.158 C 
ATOM     32  C   UNL     1       4.172   9.274   0.000  0.00  0.00    +0.028 A 
ATOM     33  C   UNL     1       2.873  10.025   0.000  0.00  0.00    +0.134 A 
ATOM     36  C   UNL     1       1.573   9.274   0.000  0.00  0.00    +0.075 A 
ATOM     37  C   UNL     1       0.275  10.025   0.000  0.00  0.00    +0.202 C 
ATOM     38  O   UNL     1       0.275  11.525   0.000  0.00  0.00    -0.286 OA
ATOM     39  O   UNL     1       0.275   5.524   0.000  0.00  0.00    -0.287 OA
ATOM     40  C   UNL     1      -1.025   9.274   0.000  0.00  0.00    +0.075 A 
ATOM     41  C   UNL     1      -2.324  10.025   0.000  0.00  0.00    +0.128 A 
ATOM     44  C   UNL     1      -3.623   9.274   0.000  0.00  0.00    +0.046 A 
ATOM     45  C   UNL     1      -3.623   7.774   0.000  0.00  0.00    +0.004 A 
ENDROOT
BRANCH   7   8
ATOM      8  C   UNL     1       5.471   5.524   0.000  0.00  0.00    +0.317 C 
ATOM     11  O   UNL     1       6.770   4.774   0.000  0.00  0.00    -0.250 OA
BRANCH   8   9
ATOM      9  O   UNL     1       4.172   4.774   0.000  0.00  0.00    -0.467 OA
ATOM     10  C   UNL     1       2.873   5.524   0.000  0.00  0.00    +0.280 C 
ENDBRANCH   8   9
ENDBRANCH   7   8
BRANCH  12  13
ATOM     13  O   UNL     1       8.247   8.035   0.000  0.00  0.00    -0.387 OA
ATOM     14  H   UNL     1       8.870   7.292   0.000  0.00  0.00    +0.210 HD
ENDBRANCH  12  13
BRANCH  12  15
ATOM     15  C   UNL     1       7.283   6.365   0.000  0.00  0.00    +0.032 C 
ATOM     16  C   UNL     1       8.760   6.104   0.000  0.00  0.00    +0.007 C 
ENDBRANCH  12  15
BRANCH  33  34
ATOM     34  O   UNL     1       2.873  11.525   0.000  0.00  0.00    -0.506 OA
ATOM     35  H   UNL     1       3.684  11.993   0.000  0.00  0.00    +0.292 HD
ENDBRANCH  33  34
BRANCH  41  42
ATOM     42  O   UNL     1      -2.324  11.525   0.000  0.00  0.00    -0.506 OA
ATOM     43  H   UNL     1      -1.512  11.993   0.000  0.00  0.00    +0.292 HD
ENDBRANCH  41  42
BRANCH  18  19
ATOM     19  O   UNL     1       5.471  11.525   0.000  0.00  0.00    -0.343 OA
BRANCH  19  20
ATOM     20  C   UNL     1       6.770  12.275   0.000  0.00  0.00    +0.253 C 
ATOM     21  C   UNL     1       8.069  11.525   0.000  0.00  0.00    +0.083 C 
ATOM     22  C   UNL     1       9.368  12.275   0.000  0.00  0.00    +0.092 C 
ATOM     26  C   UNL     1       9.368  13.775   0.000  0.00  0.00    +0.160 C 
ATOM     29  C   UNL     1       8.069  14.525   0.000  0.00  0.00    +0.148 C 
ATOM     30  C   UNL     1       8.069  13.025   0.000  0.00  0.00    +0.041 C 
ATOM     31  O   UNL     1       6.770  13.775   0.000  0.00  0.00    -0.346 OA
BRANCH  22  23
ATOM     23  N   UNL     1      10.667  11.525   0.000  0.00  0.00    -0.303 NA
ATOM     24  C   UNL     1      11.966  12.275   0.000  0.00  0.00    +0.105 C 
ATOM     25  C   UNL     1      10.667  10.025   0.000  0.00  0.00    +0.105 C 
ENDBRANCH  22  23
BRANCH  26  27
ATOM     27  O   UNL     1      10.667  14.525   0.000  0.00  0.00    -0.388 OA
ATOM     28  H   UNL     1      11.507  14.040   0.000  0.00  0.00    +0.210 HD
ENDBRANCH  26  27
ENDBRANCH  19  20
ENDBRANCH  18  19
TORSDOF 10