REMARK  Name = NSC 332294#2
REMARK  7 active torsions:
REMARK  status: ('A' for Active; 'I' for Inactive)
REMARK    1  A    between atoms: C_2  and  O_3
REMARK    2  A    between atoms: C_2  and  C_4
REMARK    3  A    between atoms: C_2  and  C_7
REMARK    4  A    between atoms: C_4  and  O_5
REMARK    5  A    between atoms: C_7  and  C_8
REMARK    6  A    between atoms: C_7  and  O_11
REMARK    7  A    between atoms: C_8  and  O_9
REMARK                            x       y       z     vdW  Elec       q    Type
REMARK                         _______ _______ _______ _____ _____    ______ ____
ROOT
ATOM      1  C   UNL     1       0.969  14.205   0.000  0.00  0.00    +0.262 C 
ENDROOT
BRANCH   1   2
ATOM      2  O   UNL     1       0.867  15.702   0.000  0.00  0.00    -0.378 OA
ATOM      3  H   UNL     1       1.672  16.243   0.000  0.00  0.00    +0.211 HD
ENDBRANCH   1   2
BRANCH   1   4
ATOM      4  C   UNL     1       0.309  12.858   0.000  0.00  0.00    +0.337 C 
ATOM      7  O   UNL     1      -1.187  12.756   0.000  0.00  0.00    -0.248 OA
BRANCH   4   5
ATOM      5  O   UNL     1       1.146  11.613   0.000  0.00  0.00    -0.479 OA
ATOM      6  H   UNL     1       0.734  10.772   0.000  0.00  0.00    +0.295 HD
ENDBRANCH   4   5
ENDBRANCH   1   4
BRANCH   1   8
ATOM      8  C   UNL     1       2.466  14.307   0.000  0.00  0.00    +0.262 C 
BRANCH   8   9
ATOM      9  C   UNL     1       3.126  15.654   0.000  0.00  0.00    +0.337 C 
ATOM     12  O   UNL     1       4.622  15.756   0.000  0.00  0.00    -0.248 OA
BRANCH   9  10
ATOM     10  O   UNL     1       2.289  16.899   0.000  0.00  0.00    -0.479 OA
ATOM     11  H   UNL     1       2.701  17.741   0.000  0.00  0.00    +0.295 HD
ENDBRANCH   9  10
ENDBRANCH   8   9
BRANCH   8  13
ATOM     13  O   UNL     1       3.813  13.647   0.000  0.00  0.00    -0.378 OA
ATOM     14  H   UNL     1       3.879  12.679   0.000  0.00  0.00    +0.211 HD
ENDBRANCH   8  13
ENDBRANCH   1   8
TORSDOF 7