REMARK  Name = NSC 50131
REMARK  17 active torsions:
REMARK  status: ('A' for Active; 'I' for Inactive)
REMARK    1  A    between atoms: C_1  and  O_2
REMARK    2  A    between atoms: C_5  and  O_6
REMARK    3  A    between atoms: O_6  and  C_7
REMARK    4  A    between atoms: C_8  and  O_9
REMARK    5  A    between atoms: O_9  and  C_10
REMARK    6  A    between atoms: C_13  and  C_14
REMARK    7  A    between atoms: C_16  and  O_17
REMARK    8  A    between atoms: O_17  and  C_18
REMARK    9  A    between atoms: C_19  and  O_20
REMARK   10  A    between atoms: O_20  and  C_21
REMARK   11  A    between atoms: C_22  and  O_23
REMARK   12  A    between atoms: O_23  and  C_24
REMARK   13  A    between atoms: C_26  and  C_27
REMARK   14  A    between atoms: C_27  and  O_28
REMARK   15  A    between atoms: C_30  and  O_31
REMARK   16  A    between atoms: C_30  and  C_32
REMARK   17  A    between atoms: C_32  and  O_33
REMARK                            x       y       z     vdW  Elec       q    Type
REMARK                         _______ _______ _______ _____ _____    ______ ____
ROOT
ATOM      1  C   UNL     1       9.212  -0.955   0.000  0.00  0.00    +0.179 C 
ATOM      4  C   UNL     1       7.913  -1.705   0.000  0.00  0.00    -0.009 A 
ATOM      5  C   UNL     1       6.614  -0.955   0.000  0.00  0.00    +0.056 A 
ATOM      6  C   UNL     1       5.315  -1.705   0.000  0.00  0.00    +0.162 A 
ATOM      9  C   UNL     1       5.315  -3.205   0.000  0.00  0.00    +0.162 A 
ATOM     12  C   UNL     1       6.614  -3.955   0.000  0.00  0.00    +0.054 A 
ATOM     13  C   UNL     1       7.913  -3.205   0.000  0.00  0.00    -0.030 A 
ATOM     14  C   UNL     1       9.212  -3.955   0.000  0.00  0.00    +0.066 C 
ATOM     27  C   UNL     1      10.511  -3.205   0.000  0.00  0.00    +0.146 C 
ATOM     32  C   UNL     1      10.511  -1.705   0.000  0.00  0.00    +0.132 C 
ENDROOT
BRANCH  14  15
ATOM     15  C   UNL     1       9.212  -5.455   0.000  0.00  0.00    -0.032 A 
ATOM     16  C   UNL     1      10.511  -6.205   0.000  0.00  0.00    +0.054 A 
ATOM     17  C   UNL     1      10.511  -7.705   0.000  0.00  0.00    +0.165 A 
ATOM     20  C   UNL     1       9.212  -8.455   0.000  0.00  0.00    +0.204 A 
ATOM     23  C   UNL     1       7.913  -7.705   0.000  0.00  0.00    +0.165 A 
ATOM     26  C   UNL     1       7.913  -6.205   0.000  0.00  0.00    +0.054 A 
BRANCH  17  18
ATOM     18  O   UNL     1      11.810  -8.455   0.000  0.00  0.00    -0.491 OA
ATOM     19  C   UNL     1      13.109  -7.705   0.000  0.00  0.00    +0.277 C 
ENDBRANCH  17  18
BRANCH  20  21
ATOM     21  O   UNL     1       9.212  -9.955   0.000  0.00  0.00    -0.488 OA
ATOM     22  C   UNL     1       7.913 -10.705   0.000  0.00  0.00    +0.277 C 
ENDBRANCH  20  21
BRANCH  23  24
ATOM     24  O   UNL     1       6.614  -8.455   0.000  0.00  0.00    -0.491 OA
ATOM     25  C   UNL     1       5.315  -7.705   0.000  0.00  0.00    +0.277 C 
ENDBRANCH  23  24
ENDBRANCH  14  15
BRANCH   1   2
ATOM      2  O   UNL     1       9.212   0.545   0.000  0.00  0.00    -0.384 OA
ATOM      3  H   UNL     1      10.052   1.030   0.000  0.00  0.00    +0.210 HD
ENDBRANCH   1   2
BRANCH   6   7
ATOM      7  O   UNL     1       4.016  -0.955   0.000  0.00  0.00    -0.491 OA
ATOM      8  C   UNL     1       2.717  -1.705   0.000  0.00  0.00    +0.277 C 
ENDBRANCH   6   7
BRANCH   9  10
ATOM     10  O   UNL     1       4.016  -3.955   0.000  0.00  0.00    -0.491 OA
ATOM     11  C   UNL     1       2.717  -3.205   0.000  0.00  0.00    +0.277 C 
ENDBRANCH   9  10
BRANCH  27  28
ATOM     28  C   UNL     1      11.810  -3.955   0.000  0.00  0.00    +0.312 C 
ATOM     31  O   UNL     1      13.109  -3.205   0.000  0.00  0.00    -0.251 OA
BRANCH  28  29
ATOM     29  O   UNL     1      11.810  -5.455   0.000  0.00  0.00    -0.480 OA
ATOM     30  H   UNL     1      10.998  -5.924   0.000  0.00  0.00    +0.295 HD
ENDBRANCH  28  29
ENDBRANCH  27  28
BRANCH  32  33
ATOM     33  O   UNL     1      11.988  -1.966   0.000  0.00  0.00    -0.383 OA
ATOM     34  H   UNL     1      12.320  -2.877   0.000  0.00  0.00    +0.210 HD
ENDBRANCH  32  33
BRANCH  32  35
ATOM     35  C   UNL     1      11.024  -0.296   0.000  0.00  0.00    +0.194 C 
BRANCH  35  36
ATOM     36  O   UNL     1      12.501  -0.035   0.000  0.00  0.00    -0.392 OA
ATOM     37  H   UNL     1      13.125  -0.778   0.000  0.00  0.00    +0.210 HD
ENDBRANCH  35  36
ENDBRANCH  32  35
TORSDOF 12