REMARK  Name = NSC 32743
REMARK  9 active torsions:
REMARK  status: ('A' for Active; 'I' for Inactive)
REMARK    1  A    between atoms: C_3  and  C_4
REMARK    2  A    between atoms: C_6  and  C_7
REMARK    3  A    between atoms: C_6  and  O_8
REMARK    4  A    between atoms: O_8  and  C_9
REMARK    5  A    between atoms: C_9  and  C_10
REMARK    6  A    between atoms: C_13  and  C_14
REMARK    7  A    between atoms: C_14  and  C_15
REMARK    8  A    between atoms: C_14  and  O_24
REMARK    9  A    between atoms: C_15  and  C_16
REMARK                            x       y       z     vdW  Elec       q    Type
REMARK                         _______ _______ _______ _____ _____    ______ ____
ROOT
ATOM      1  O   UNL     1      -6.120  -4.399   0.000  0.00  0.00    -0.297 OA
ATOM      2  C   UNL     1      -6.120  -5.899   0.000  0.00  0.00    +0.142 C 
ATOM      3  C   UNL     1      -7.419  -6.649   0.000  0.00  0.00    +0.056 C 
ATOM      4  C   UNL     1      -8.718  -5.899   0.000  0.00  0.00    +0.015 C 
ATOM      5  C   UNL     1      -7.419  -8.149   0.000  0.00  0.00    +0.058 C 
ATOM      6  C   UNL     1      -6.120  -8.899   0.000  0.00  0.00    +0.112 C 
ATOM      7  C   UNL     1      -5.156 -10.049   0.000  0.00  0.00    +0.056 C 
ATOM     12  C   UNL     1      -4.821  -8.149   0.000  0.00  0.00    +0.061 C 
ATOM     13  C   UNL     1      -4.821  -6.649   0.000  0.00  0.00    +0.088 C 
ENDROOT
BRANCH   6   8
ATOM      8  O   UNL     1      -7.084 -10.049   0.000  0.00  0.00    -0.458 OA
BRANCH   8   9
ATOM      9  C   UNL     1      -8.562  -9.788   0.000  0.00  0.00    +0.304 C 
ATOM     10  C   UNL     1      -9.526 -10.937   0.000  0.00  0.00    +0.136 C 
ATOM     11  O   UNL     1      -9.075  -8.379   0.000  0.00  0.00    -0.251 OA
ENDBRANCH   8   9
ENDBRANCH   6   8
BRANCH  13  14
ATOM     14  C   UNL     1      -3.522  -5.899   0.000  0.00  0.00    +0.125 C 
BRANCH  14  25
ATOM     25  O   UNL     1      -3.522  -4.399   0.000  0.00  0.00    -0.391 OA
ATOM     26  H   UNL     1      -2.682  -3.914   0.000  0.00  0.00    +0.210 HD
ENDBRANCH  14  25
BRANCH  14  15
ATOM     15  C   UNL     1      -2.223  -6.649   0.000  0.00  0.00    +0.036 C 
BRANCH  15  16
ATOM     16  C   UNL     1      -0.924  -5.899   0.000  0.00  0.00    +0.009 C 
ATOM     17  C   UNL     1       0.375  -6.649   0.000  0.00  0.00    +0.100 C 
ATOM     18  C   UNL     1       1.674  -5.899   0.000  0.00  0.00    +0.219 C 
ATOM     19  N   UNL     1       1.674  -4.399   0.000  0.00  0.00    -0.256 N 
ATOM     20  H   UNL     1       2.527  -3.907   0.000  0.00  0.00    +0.157 HD
ATOM     21  C   UNL     1       0.375  -3.650   0.000  0.00  0.00    +0.219 C 
ATOM     22  O   UNL     1       0.375  -2.150   0.000  0.00  0.00    -0.275 OA
ATOM     23  O   UNL     1       2.973  -6.649   0.000  0.00  0.00    -0.275 OA
ATOM     24  C   UNL     1      -0.924  -4.399   0.000  0.00  0.00    +0.100 C 
ENDBRANCH  15  16
ENDBRANCH  14  15
ENDBRANCH  13  14
TORSDOF 6