REMARK  Name = NSC 785176#1
REMARK  9 active torsions:
REMARK  status: ('A' for Active; 'I' for Inactive)
REMARK    1  A    between atoms: C_1  and  O_2
REMARK    2  A    between atoms: O_2  and  C_3
REMARK    3  A    between atoms: C_4  and  O_5
REMARK    4  A    between atoms: C_9  and  N_12
REMARK    5  A    between atoms: N_12  and  C_13
REMARK    6  A    between atoms: N_12  and  C_20
REMARK    7  A    between atoms: C_13  and  C_14
REMARK    8  A    between atoms: C_20  and  C_21
REMARK    9  A    between atoms: N_30  and  C_31
REMARK                            x       y       z     vdW  Elec       q    Type
REMARK                         _______ _______ _______ _____ _____    ______ ____
ROOT
ATOM      1  C   UNL     1      -0.257  14.525   0.000  0.00  0.00    +0.162 A 
ATOM      4  C   UNL     1      -0.259  13.025   0.000  0.00  0.00    +0.167 A 
ATOM      7  C   UNL     1       1.039  12.273   0.000  0.00  0.00    +0.032 A 
ATOM      8  C   UNL     1       1.038  10.773   0.000  0.00  0.00    -0.009 A 
ATOM      9  C   UNL     1      -0.262  10.025   0.000  0.00  0.00    +0.032 A 
ATOM     10  C   UNL     1      -0.264   8.525   0.000  0.00  0.00    +0.031 A 
ATOM     11  C   UNL     1       1.034   7.773   0.000  0.00  0.00    +0.023 A 
ATOM     12  C   UNL     1       2.334   8.522   0.000  0.00  0.00    +0.006 A 
ATOM     28  C   UNL     1       2.336  10.022   0.000  0.00  0.00    -0.038 A 
ATOM     29  C   UNL     1       3.636  10.770   0.000  0.00  0.00    +0.059 C 
ATOM     30  C   UNL     1       3.638  12.270   0.000  0.00  0.00    +0.092 C 
ATOM     31  N   UNL     1       4.937  13.019   0.000  0.00  0.00    -0.298 NA
ATOM     32  C   UNL     1       6.236  12.267   0.000  0.00  0.00    +0.105 C 
ATOM     33  C   UNL     1       4.939  14.519   0.000  0.00  0.00    +0.089 C 
ATOM     34  C   UNL     1       3.641  15.270   0.000  0.00  0.00    +0.051 C 
ATOM     35  C   UNL     1       2.341  14.522   0.000  0.00  0.00    -0.037 A 
ATOM     36  C   UNL     1       2.339  13.022   0.000  0.00  0.00    -0.015 A 
ATOM     37  C   UNL     1       1.043  15.273   0.000  0.00  0.00    +0.053 A 
ENDROOT
BRANCH   1   2
ATOM      2  O   UNL     1      -1.555  15.276   0.000  0.00  0.00    -0.491 OA
ATOM      3  C   UNL     1      -1.553  16.776   0.000  0.00  0.00    +0.277 C 
ENDBRANCH   1   2
BRANCH   4   5
ATOM      5  O   UNL     1      -1.559  12.276   0.000  0.00  0.00    -0.503 OA
ATOM      6  H   UNL     1      -2.370  12.746   0.000  0.00  0.00    +0.292 HD
ENDBRANCH   4   5
BRANCH  10  13
ATOM     13  N   UNL     1      -1.564   7.776   0.000  0.00  0.00    -0.321 N 
BRANCH  13  14
ATOM     14  C   UNL     1      -2.862   8.528   0.000  0.00  0.00    +0.140 C 
BRANCH  14  15
ATOM     15  C   UNL     1      -4.162   7.780   0.000  0.00  0.00    -0.030 A 
ATOM     16  C   UNL     1      -4.164   6.280   0.000  0.00  0.00    +0.005 A 
ATOM     17  C   UNL     1      -5.464   5.531   0.000  0.00  0.00    +0.000 A 
ATOM     18  C   UNL     1      -6.762   6.283   0.000  0.00  0.00    +0.000 A 
ATOM     19  C   UNL     1      -6.760   7.783   0.000  0.00  0.00    +0.000 A 
ATOM     20  C   UNL     1      -5.460   8.531   0.000  0.00  0.00    +0.005 A 
ENDBRANCH  14  15
ENDBRANCH  13  14
BRANCH  13  21
ATOM     21  C   UNL     1      -1.566   6.276   0.000  0.00  0.00    +0.140 C 
BRANCH  21  22
ATOM     22  C   UNL     1      -0.268   5.525   0.000  0.00  0.00    -0.030 A 
ATOM     23  C   UNL     1      -0.270   4.025   0.000  0.00  0.00    +0.005 A 
ATOM     24  C   UNL     1       1.029   3.273   0.000  0.00  0.00    +0.000 A 
ATOM     25  C   UNL     1       2.328   4.022   0.000  0.00  0.00    +0.000 A 
ATOM     26  C   UNL     1       2.330   5.522   0.000  0.00  0.00    +0.000 A 
ATOM     27  C   UNL     1       1.032   6.273   0.000  0.00  0.00    +0.005 A 
ENDBRANCH  21  22
ENDBRANCH  13  21
ENDBRANCH  10  13
TORSDOF 7