REMARK  Name = NSC 156219
REMARK  21 active torsions:
REMARK  status: ('A' for Active; 'I' for Inactive)
REMARK    1  A    between atoms: C_3  and  C_4
REMARK    2  A    between atoms: C_8  and  O_9
REMARK    3  A    between atoms: C_8  and  C_10
REMARK    4  A    between atoms: C_11  and  O_12
REMARK    5  A    between atoms: C_13  and  C_14
REMARK    6  A    between atoms: C_15  and  O_16
REMARK    7  A    between atoms: C_17  and  C_18
REMARK    8  A    between atoms: C_18  and  O_20
REMARK    9  A    between atoms: O_20  and  C_21
REMARK   10  A    between atoms: C_22  and  O_23
REMARK   11  A    between atoms: C_24  and  C_25
REMARK   12  A    between atoms: C_26  and  O_27
REMARK   13  A    between atoms: C_28  and  C_29
REMARK   14  A    between atoms: C_28  and  O_30
REMARK   15  A    between atoms: C_32  and  C_33
REMARK   16  A    between atoms: C_37  and  O_38
REMARK   17  A    between atoms: O_38  and  C_39
REMARK   18  A    between atoms: C_39  and  C_40
REMARK   19  A    between atoms: C_42  and  C_43
REMARK   20  A    between atoms: C_45  and  O_46
REMARK   21  A    between atoms: C_49  and  C_50
REMARK                            x       y       z     vdW  Elec       q    Type
REMARK                         _______ _______ _______ _____ _____    ______ ____
ROOT
ATOM      1  O   UNL     1      -2.421  -6.375   0.000  0.00  0.00    -0.270 OA
ATOM      2  C   UNL     1      -2.210  -4.890   0.000  0.00  0.00    +0.244 C 
ATOM      3  C   UNL     1      -3.660  -4.504   0.000  0.00  0.00    +0.012 C 
ATOM      4  C   UNL     1      -4.215  -5.897   0.000  0.00  0.00    +0.049 C 
ATOM      5  C   UNL     1      -4.823  -3.569   0.000  0.00  0.00    +0.008 C 
ATOM      6  C   UNL     1      -6.089  -2.780   0.000  0.00  0.00    -0.001 C 
ATOM      7  C   UNL     1      -6.932  -1.539   0.000  0.00  0.00    +0.009 C 
ATOM      8  C   UNL     1      -7.458  -0.134   0.000  0.00  0.00    +0.108 C 
ATOM     11  C   UNL     1      -8.880   0.343   0.000  0.00  0.00    +0.048 C 
ATOM     12  C   UNL     1      -7.638   1.355   0.000  0.00  0.00    +0.155 C 
ATOM     15  C   UNL     1      -7.463   2.845   0.000  0.00  0.00    +0.047 C 
ATOM     16  C   UNL     1      -8.921   3.196   0.000  0.00  0.00    +0.013 C 
ATOM     17  C   UNL     1      -6.941   4.251   0.000  0.00  0.00    +0.136 C 
ATOM     20  C   UNL     1      -6.102   5.495   0.000  0.00  0.00    +0.155 C 
ATOM     25  C   UNL     1      -4.994   6.505   0.000  0.00  0.00    +0.136 C 
ATOM     28  C   UNL     1      -3.678   7.226   0.000  0.00  0.00    +0.047 C 
ATOM     29  C   UNL     1      -4.238   8.618   0.000  0.00  0.00    +0.013 C 
ATOM     30  C   UNL     1      -2.230   7.617   0.000  0.00  0.00    +0.155 C 
ATOM     33  C   UNL     1      -0.730   7.655   0.000  0.00  0.00    +0.108 C 
ATOM     34  C   UNL     1       0.186   8.843   0.000  0.00  0.00    +0.048 C 
ATOM     37  C   UNL     1       0.649   7.086   0.000  0.00  0.00    +0.016 C 
ATOM     38  C   UNL     1       2.086   6.685   0.000  0.00  0.00    -0.009 C 
ATOM     39  C   UNL     1       3.228   7.657   0.000  0.00  0.00    +0.047 C 
ATOM     40  C   UNL     1       3.843   0.794   0.000  0.00  0.00    +0.139 C 
ATOM     41  C   UNL     1       4.743  -0.405   0.000  0.00  0.00    +0.071 C 
ATOM     42  C   UNL     1       4.155  -1.785   0.000  0.00  0.00    +0.046 A 
ATOM     43  C   UNL     1       3.258  -2.987   0.000  0.00  0.00    +0.145 A 
ATOM     48  C   UNL     1       2.103  -3.944   0.000  0.00  0.00    +0.017 A 
ATOM     49  C   UNL     1       2.916  -5.205   0.000  0.00  0.00    +0.049 C 
ATOM     50  C   UNL     1       0.755  -4.602   0.000  0.00  0.00    +0.083 A 
ATOM     51  C   UNL     1       4.480  -4.370   0.000  0.00  0.00    +0.150 A 
ATOM     54  C   UNL     1       5.056  -2.985   0.000  0.00  0.00    +0.077 A 
ATOM     55  C   UNL     1       6.545  -2.804   0.000  0.00  0.00    +0.197 C 
ATOM     56  C   UNL     1       7.133  -1.424   0.000  0.00  0.00    +0.039 C 
ATOM     57  C   UNL     1       8.622  -1.244   0.000  0.00  0.00    +0.051 C 
ATOM     58  O   UNL     1       7.446  -4.004   0.000  0.00  0.00    -0.287 OA
ATOM     59  C   UNL     1       6.232  -0.225   0.000  0.00  0.00    +0.143 C 
ATOM     60  O   UNL     1       6.821   1.155   0.000  0.00  0.00    -0.455 OA
ATOM     61  C   UNL     1       5.920   2.354   0.000  0.00  0.00    +0.466 C 
ATOM     62  O   UNL     1       4.431   2.174   0.000  0.00  0.00    -0.455 OA
ATOM     63  N   UNL     1      -0.711  -4.923   0.000  0.00  0.00    -0.279 N 
ATOM     64  H   UNL     1      -0.566  -6.416   0.000  0.00  0.00    +0.155 HD
ENDROOT
BRANCH   8   9
ATOM      9  O   UNL     1      -8.500  -1.213   0.000  0.00  0.00    -0.382 OA
ATOM     10  H   UNL     1      -9.441  -0.978   0.000  0.00  0.00    +0.211 HD
ENDBRANCH   8   9
BRANCH  12  13
ATOM     13  O   UNL     1      -9.138   1.353   0.000  0.00  0.00    -0.388 OA
ATOM     14  H   UNL     1      -9.625   2.192   0.000  0.00  0.00    +0.210 HD
ENDBRANCH  12  13
BRANCH  17  18
ATOM     18  O   UNL     1      -8.275   4.936   0.000  0.00  0.00    -0.391 OA
ATOM     19  H   UNL     1      -8.323   5.905   0.000  0.00  0.00    +0.210 HD
ENDBRANCH  17  18
BRANCH  20  21
ATOM     21  C   UNL     1      -7.237   6.475   0.000  0.00  0.00    +0.315 C 
ATOM     22  O   UNL     1      -6.956   7.948   0.000  0.00  0.00    -0.250 OA
BRANCH  21  23
ATOM     23  O   UNL     1      -8.654   5.982   0.000  0.00  0.00    -0.468 OA
ATOM     24  C   UNL     1      -9.789   6.963   0.000  0.00  0.00    +0.280 C 
ENDBRANCH  21  23
ENDBRANCH  20  21
BRANCH  25  26
ATOM     26  O   UNL     1      -5.866   7.726   0.000  0.00  0.00    -0.391 OA
ATOM     27  H   UNL     1      -5.464   8.609   0.000  0.00  0.00    +0.210 HD
ENDBRANCH  25  26
BRANCH  30  31
ATOM     31  O   UNL     1      -2.446   9.101   0.000  0.00  0.00    -0.388 OA
ATOM     32  H   UNL     1      -1.684   9.702   0.000  0.00  0.00    +0.210 HD
ENDBRANCH  30  31
BRANCH  33  35
ATOM     35  O   UNL     1      -1.409   8.992   0.000  0.00  0.00    -0.382 OA
ATOM     36  H   UNL     1      -0.880   9.805   0.000  0.00  0.00    +0.211 HD
ENDBRANCH  33  35
BRANCH  51  52
ATOM     52  O   UNL     1       5.351  -5.591   0.000  0.00  0.00    -0.504 OA
ATOM     53  H   UNL     1       4.962  -6.443   0.000  0.00  0.00    +0.292 HD
ENDBRANCH  51  52
BRANCH  43  44
ATOM     44  O   UNL     1       4.345  -4.021   0.000  0.00  0.00    -0.425 OA
BRANCH  44  45
ATOM     45  C   UNL     1       3.994  -5.479   0.000  0.00  0.00    +0.309 C 
ATOM     46  C   UNL     1       5.081  -6.513   0.000  0.00  0.00    +0.136 C 
ATOM     47  O   UNL     1       2.555  -5.904   0.000  0.00  0.00    -0.251 OA
ENDBRANCH  44  45
ENDBRANCH  43  44
TORSDOF 11