REMARK  Name = NSC 15624
REMARK  6 active torsions:
REMARK  status: ('A' for Active; 'I' for Inactive)
REMARK    1  A    between atoms: C_5  and  O_6
REMARK    2  A    between atoms: O_6  and  C_7
REMARK    3  A    between atoms: C_17  and  C_18
REMARK    4  A    between atoms: C_21  and  C_22
REMARK    5  A    between atoms: C_22  and  O_24
REMARK    6  A    between atoms: O_24  and  C_25
REMARK                            x       y       z     vdW  Elec       q    Type
REMARK                         _______ _______ _______ _____ _____    ______ ____
ROOT
ATOM      1  N   UNL     1      -9.596   0.387   0.000  0.00  0.00    -0.356 N 
ATOM      2  H   UNL     1     -10.059  -1.040   0.000  0.00  0.00    +0.166 HD
ATOM      3  C   UNL     1     -10.477   1.601   0.000  0.00  0.00    +0.050 A 
ATOM      4  C   UNL     1     -11.969   1.757   0.000  0.00  0.00    +0.071 A 
ATOM      5  C   UNL     1     -12.579   3.128   0.000  0.00  0.00    +0.122 A 
ATOM      8  C   UNL     1     -11.698   4.341   0.000  0.00  0.00    +0.046 A 
ATOM      9  C   UNL     1     -10.206   4.184   0.000  0.00  0.00    +0.014 A 
ATOM     10  C   UNL     1      -9.596   2.814   0.000  0.00  0.00    +0.003 A 
ATOM     11  C   UNL     1      -8.169   2.350   0.000  0.00  0.00    -0.016 A 
ATOM     12  C   UNL     1      -6.870   3.100   0.000  0.00  0.00    +0.053 C 
ATOM     13  C   UNL     1      -5.571   2.350   0.000  0.00  0.00    +0.090 C 
ATOM     14  N   UNL     1      -5.571   0.851   0.000  0.00  0.00    -0.293 NA
ATOM     15  C   UNL     1      -4.272   0.101   0.000  0.00  0.00    +0.092 C 
ATOM     16  C   UNL     1      -4.272  -1.400   0.000  0.00  0.00    +0.051 C 
ATOM     17  C   UNL     1      -2.973  -2.150   0.000  0.00  0.00    +0.174 C 
ATOM     18  C   UNL     1      -1.674  -1.400   0.000  0.00  0.00    +0.052 C 
ATOM     19  O   UNL     1      -2.973  -3.650   0.000  0.00  0.00    -0.496 OA
ATOM     20  C   UNL     1      -4.272  -4.399   0.000  0.00  0.00    +0.198 C 
ATOM     21  C   UNL     1      -5.571  -3.650   0.000  0.00  0.00    +0.074 C 
ATOM     26  C   UNL     1      -5.571  -2.150   0.000  0.00  0.00    +0.039 C 
ATOM     27  C   UNL     1      -6.870  -1.400   0.000  0.00  0.00    +0.034 C 
ATOM     28  C   UNL     1      -6.870   0.101   0.000  0.00  0.00    +0.104 C 
ATOM     29  C   UNL     1      -8.169   0.851   0.000  0.00  0.00    +0.038 A 
ENDROOT
BRANCH   5   6
ATOM      6  O   UNL     1     -14.071   3.284   0.000  0.00  0.00    -0.495 OA
ATOM      7  C   UNL     1     -14.681   4.655   0.000  0.00  0.00    +0.277 C 
ENDBRANCH   5   6
BRANCH  21  22
ATOM     22  C   UNL     1      -6.870  -4.399   0.000  0.00  0.00    +0.338 C 
ATOM     23  O   UNL     1      -6.870  -5.899   0.000  0.00  0.00    -0.245 OA
BRANCH  22  24
ATOM     24  O   UNL     1      -8.169  -3.650   0.000  0.00  0.00    -0.465 OA
ATOM     25  C   UNL     1      -9.468  -4.399   0.000  0.00  0.00    +0.280 C 
ENDBRANCH  22  24
ENDBRANCH  21  22
TORSDOF 3