REMARK  Name = NSC 2347
REMARK  8 active torsions:
REMARK  status: ('A' for Active; 'I' for Inactive)
REMARK    1  A    between atoms: C_1  and  C_2
REMARK    2  A    between atoms: C_1  and  O_12
REMARK    3  A    between atoms: C_2  and  C_3
REMARK    4  A    between atoms: C_3  and  C_4
REMARK    5  A    between atoms: C_3  and  C_8
REMARK    6  A    between atoms: C_4  and  C_5
REMARK    7  A    between atoms: C_5  and  O_6
REMARK    8  A    between atoms: C_8  and  O_9
REMARK                            x       y       z     vdW  Elec       q    Type
REMARK                         _______ _______ _______ _____ _____    ______ ____
ROOT
ATOM      3  C   UNL     1      -2.525  -4.922   0.000  0.00  0.00    +0.119 C 
ENDROOT
BRANCH   3   9
ATOM      9  C   UNL     1      -3.275  -3.623   0.000  0.00  0.00    +0.309 C 
ATOM     12  O   UNL     1      -4.774  -3.623   0.000  0.00  0.00    -0.251 OA
BRANCH   9  10
ATOM     10  O   UNL     1      -2.525  -2.324   0.000  0.00  0.00    -0.480 OA
ATOM     11  H   UNL     1      -1.588  -2.324   0.000  0.00  0.00    +0.295 HD
ENDBRANCH   9  10
ENDBRANCH   3   9
BRANCH   3   2
ATOM      2  C   UNL     1      -1.025  -4.922   0.000  0.00  0.00    +0.135 C 
BRANCH   2   1
ATOM      1  C   UNL     1      -0.275  -3.623   0.000  0.00  0.00    +0.306 C 
ATOM     13  O   UNL     1       1.226  -3.623   0.000  0.00  0.00    -0.251 OA
BRANCH   1  14
ATOM     14  O   UNL     1      -1.025  -2.324   0.000  0.00  0.00    -0.481 OA
ATOM     15  H   UNL     1      -0.556  -1.512   0.000  0.00  0.00    +0.295 HD
ENDBRANCH   1  14
ENDBRANCH   2   1
ENDBRANCH   3   2
BRANCH   3   4
ATOM      4  C   UNL     1      -3.275  -6.221   0.000  0.00  0.00    +0.135 C 
BRANCH   4   5
ATOM      5  C   UNL     1      -4.774  -6.221   0.000  0.00  0.00    +0.306 C 
ATOM      8  O   UNL     1      -5.524  -4.922   0.000  0.00  0.00    -0.251 OA
BRANCH   5   6
ATOM      6  O   UNL     1      -5.524  -7.520   0.000  0.00  0.00    -0.481 OA
ATOM      7  H   UNL     1      -6.461  -7.520   0.000  0.00  0.00    +0.295 HD
ENDBRANCH   5   6
ENDBRANCH   4   5
ENDBRANCH   3   4
TORSDOF 8