REMARK  Name = NSC 6435
REMARK  6 active torsions:
REMARK  status: ('A' for Active; 'I' for Inactive)
REMARK    1  A    between atoms: C_9  and  C_10
REMARK    2  A    between atoms: C_9  and  C_11
REMARK    3  A    between atoms: C_15  and  C_16
REMARK    4  A    between atoms: C_15  and  C_17
REMARK    5  A    between atoms: C_17  and  O_18
REMARK    6  A    between atoms: C_23  and  C_24
REMARK                            x       y       z     vdW  Elec       q    Type
REMARK                         _______ _______ _______ _____ _____    ______ ____
ROOT
ATOM      1  C   UNL     1       2.794   4.777   0.000  0.00  0.00    +0.012 C 
ATOM      2  C   UNL     1       4.093   4.027   0.000  0.00  0.00    +0.009 C 
ATOM      3  C   UNL     1       5.392   4.777   0.000  0.00  0.00    +0.031 C 
ATOM      4  C   UNL     1       5.392   6.277   0.000  0.00  0.00    -0.069 C 
ATOM      5  C   UNL     1       4.093   7.027   0.000  0.00  0.00    +0.021 C 
ATOM      6  C   UNL     1       4.093   8.527   0.000  0.00  0.00    +0.009 C 
ATOM      7  C   UNL     1       5.392   9.277   0.000  0.00  0.00    +0.015 C 
ATOM      8  C   UNL     1       6.691   8.527   0.000  0.00  0.00    +0.004 C 
ATOM      9  C   UNL     1       8.169   8.267   0.000  0.00  0.00    +0.020 C 
ATOM     12  C   UNL     1       6.691   7.027   0.000  0.00  0.00    -0.017 C 
ATOM     13  C   UNL     1       1.495   4.027   0.000  0.00  0.00    +0.068 C 
ATOM     14  C   UNL     1       2.459   2.878   0.000  0.00  0.00    +0.023 C 
ATOM     19  C   UNL     1       0.196   4.777   0.000  0.00  0.00    +0.018 C 
ATOM     20  C   UNL     1       0.196   6.277   0.000  0.00  0.00    +0.002 C 
ATOM     21  C   UNL     1       1.495   7.027   0.000  0.00  0.00    +0.007 C 
ATOM     22  C   UNL     1       2.794   6.277   0.000  0.00  0.00    -0.022 C 
ATOM     23  C   UNL     1       2.794   7.777   0.000  0.00  0.00    +0.012 C 
ENDROOT
BRANCH   8  10
ATOM     10  C   UNL     1       7.204   9.937   0.000  0.00  0.00    -0.024 C 
ATOM     11  C   UNL     1       8.682  10.198   0.000  0.00  0.00    +0.005 C 
ENDBRANCH   8  10
BRANCH  13  15
ATOM     15  C   UNL     1       0.531   2.878   0.000  0.00  0.00    +0.311 C 
ATOM     18  O   UNL     1      -0.946   3.139   0.000  0.00  0.00    -0.250 OA
BRANCH  15  16
ATOM     16  O   UNL     1       1.044   1.469   0.000  0.00  0.00    -0.480 OA
ATOM     17  H   UNL     1       0.442   0.751   0.000  0.00  0.00    +0.295 HD
ENDBRANCH  15  16
ENDBRANCH  13  15
TORSDOF 3