REMARK  Name = NSC 100880#1
REMARK  8 active torsions:
REMARK  status: ('A' for Active; 'I' for Inactive)
REMARK    1  A    between atoms: C_10  and  C_11
REMARK    2  A    between atoms: C_11  and  O_12
REMARK    3  A    between atoms: C_13  and  C_14
REMARK    4  A    between atoms: C_14  and  C_15
REMARK    5  A    between atoms: C_14  and  O_17
REMARK    6  A    between atoms: C_14  and  C_18
REMARK    7  A    between atoms: C_15  and  C_16
REMARK    8  A    between atoms: C_18  and  O_20
REMARK                            x       y       z     vdW  Elec       q    Type
REMARK                         _______ _______ _______ _____ _____    ______ ____
ROOT
ATOM      1  C   UNL     1       1.847   1.698   0.000  0.00  0.00    +0.001 A 
ATOM      2  C   UNL     1       3.146   2.449   0.000  0.00  0.00    +0.010 A 
ATOM      3  C   UNL     1       4.445   1.698   0.000  0.00  0.00    +0.001 A 
ATOM      4  C   UNL     1       5.744   2.449   0.000  0.00  0.00    +0.017 A 
ATOM      5  C   UNL     1       7.043   1.698   0.000  0.00  0.00    +0.000 A 
ATOM      6  C   UNL     1       8.469   2.162   0.000  0.00  0.00    +0.162 C 
ATOM      7  N   UNL     1       9.351   0.949   0.000  0.00  0.00    -0.302 N 
ATOM      8  C   UNL     1      10.843   0.792   0.000  0.00  0.00    +0.258 A 
ATOM      9  O   UNL     1      11.725   2.005   0.000  0.00  0.00    -0.267 OA
ATOM     10  C   UNL     1      11.453  -0.579   0.000  0.00  0.00    +0.049 A 
ATOM     14  C   UNL     1      10.571  -1.792   0.000  0.00  0.00    +0.007 A 
ATOM     24  C   UNL     1       9.079  -1.635   0.000  0.00  0.00    +0.035 A 
ATOM     25  C   UNL     1       8.469  -0.265   0.000  0.00  0.00    +0.071 A 
ATOM     26  C   UNL     1       7.043   0.199   0.000  0.00  0.00    +0.093 A 
ATOM     27  N   UNL     1       5.744  -0.551   0.000  0.00  0.00    -0.245 NA
ATOM     28  C   UNL     1       4.445   0.199   0.000  0.00  0.00    +0.072 A 
ATOM     29  C   UNL     1       3.146  -0.551   0.000  0.00  0.00    +0.028 A 
ATOM     30  C   UNL     1       1.847   0.199   0.000  0.00  0.00    +0.002 A 
ENDROOT
BRANCH  10  11
ATOM     11  C   UNL     1      12.945  -0.735   0.000  0.00  0.00    +0.196 C 
BRANCH  11  12
ATOM     12  O   UNL     1      13.826   0.478   0.000  0.00  0.00    -0.390 OA
ATOM     13  H   UNL     1      14.791   0.377   0.000  0.00  0.00    +0.210 HD
ENDBRANCH  11  12
ENDBRANCH  10  11
BRANCH  14  15
ATOM     15  C   UNL     1      11.181  -3.163   0.000  0.00  0.00    +0.187 C 
BRANCH  15  16
ATOM     16  C   UNL     1      10.300  -4.376   0.000  0.00  0.00    +0.048 C 
ATOM     17  C   UNL     1       8.808  -4.219   0.000  0.00  0.00    +0.007 C 
ENDBRANCH  15  16
BRANCH  15  18
ATOM     18  O   UNL     1      11.791  -4.533   0.000  0.00  0.00    -0.373 OA
ATOM     19  H   UNL     1      11.221  -5.318   0.000  0.00  0.00    +0.211 HD
ENDBRANCH  15  18
BRANCH  15  20
ATOM     20  C   UNL     1      12.673  -3.319   0.000  0.00  0.00    +0.341 C 
ATOM     21  O   UNL     1      13.283  -4.690   0.000  0.00  0.00    -0.247 OA
BRANCH  20  22
ATOM     22  O   UNL     1      13.555  -2.106   0.000  0.00  0.00    -0.478 OA
ATOM     23  H   UNL     1      14.487  -2.204   0.000  0.00  0.00    +0.295 HD
ENDBRANCH  20  22
ENDBRANCH  15  20
ENDBRANCH  14  15
TORSDOF 7