REMARK  Name = NSC 4586
REMARK  7 active torsions:
REMARK  status: ('A' for Active; 'I' for Inactive)
REMARK    1  A    between atoms: C_3  and  C_4
REMARK    2  A    between atoms: C_7  and  O_8
REMARK    3  A    between atoms: C_9  and  O_10
REMARK    4  A    between atoms: O_10  and  C_11
REMARK    5  A    between atoms: C_15  and  O_16
REMARK    6  A    between atoms: C_17  and  O_18
REMARK    7  A    between atoms: O_18  and  C_19
REMARK                            x       y       z     vdW  Elec       q    Type
REMARK                         _______ _______ _______ _____ _____    ______ ____
ROOT
ATOM      1  C   UNL     1      -8.194  -0.820   0.000  0.00  0.00    +0.052 C 
ATOM      2  C   UNL     1      -8.805  -2.190   0.000  0.00  0.00    +0.057 C 
ATOM     13  C   UNL     1     -10.296  -2.347   0.000  0.00  0.00    -0.033 A 
ATOM     14  C   UNL     1     -10.906  -3.717   0.000  0.00  0.00    +0.053 A 
ATOM     15  C   UNL     1     -12.398  -3.874   0.000  0.00  0.00    +0.159 A 
ATOM     18  C   UNL     1     -13.280  -2.660   0.000  0.00  0.00    +0.162 A 
ATOM     21  C   UNL     1     -12.670  -1.290   0.000  0.00  0.00    +0.053 A 
ATOM     22  C   UNL     1     -11.178  -1.133   0.000  0.00  0.00    -0.039 A 
ATOM     23  C   UNL     1     -10.568   0.237   0.000  0.00  0.00    +0.050 C 
ATOM     24  C   UNL     1      -6.768  -0.356   0.000  0.00  0.00    +0.237 C 
ATOM     25  O   UNL     1      -6.768   1.144   0.000  0.00  0.00    -0.464 OA
ATOM     26  C   UNL     1      -8.194   1.607   0.000  0.00  0.00    +0.311 C 
ATOM     27  O   UNL     1      -8.658   3.034   0.000  0.00  0.00    -0.251 OA
ATOM     28  C   UNL     1      -9.076   0.394   0.000  0.00  0.00    +0.109 C 
ENDROOT
BRANCH   2   3
ATOM      3  C   UNL     1      -7.923  -3.404   0.000  0.00  0.00    -0.036 A 
ATOM      4  C   UNL     1      -8.533  -4.774   0.000  0.00  0.00    +0.008 A 
ATOM      5  C   UNL     1      -7.651  -5.987   0.000  0.00  0.00    +0.049 A 
ATOM      6  C   UNL     1      -6.160  -5.831   0.000  0.00  0.00    +0.158 A 
ATOM      9  C   UNL     1      -5.550  -4.460   0.000  0.00  0.00    +0.162 A 
ATOM     12  C   UNL     1      -6.431  -3.247   0.000  0.00  0.00    +0.053 A 
BRANCH   6   7
ATOM      7  O   UNL     1      -5.278  -7.044   0.000  0.00  0.00    -0.503 OA
ATOM      8  H   UNL     1      -5.659  -7.900   0.000  0.00  0.00    +0.292 HD
ENDBRANCH   6   7
BRANCH   9  10
ATOM     10  O   UNL     1      -4.058  -4.304   0.000  0.00  0.00    -0.491 OA
ATOM     11  C   UNL     1      -3.448  -2.933   0.000  0.00  0.00    +0.277 C 
ENDBRANCH   9  10
ENDBRANCH   2   3
BRANCH  15  16
ATOM     16  O   UNL     1     -13.008  -5.244   0.000  0.00  0.00    -0.503 OA
ATOM     17  H   UNL     1     -13.940  -5.342   0.000  0.00  0.00    +0.292 HD
ENDBRANCH  15  16
BRANCH  18  19
ATOM     19  O   UNL     1     -14.772  -2.817   0.000  0.00  0.00    -0.491 OA
ATOM     20  C   UNL     1     -15.382  -4.188   0.000  0.00  0.00    +0.277 C 
ENDBRANCH  18  19
TORSDOF 5