REMARK  Name = NSC 785149
REMARK  6 active torsions:
REMARK  status: ('A' for Active; 'I' for Inactive)
REMARK    1  A    between atoms: C_1  and  O_20
REMARK    2  A    between atoms: C_2  and  O_18
REMARK    3  A    between atoms: O_18  and  C_19
REMARK    4  A    between atoms: O_20  and  C_21
REMARK    5  A    between atoms: C_22  and  O_23
REMARK    6  A    between atoms: O_23  and  C_24
REMARK                            x       y       z     vdW  Elec       q    Type
REMARK                         _______ _______ _______ _____ _____    ______ ____
ROOT
ATOM      1  C   UNL     1       3.344  -3.754   0.000  0.00  0.00    +0.205 A 
ATOM      2  C   UNL     1       3.342  -5.254   0.000  0.00  0.00    +0.174 A 
ATOM      3  C   UNL     1       4.640  -6.006   0.000  0.00  0.00    +0.038 A 
ATOM      4  C   UNL     1       4.638  -7.506   0.000  0.00  0.00    -0.003 A 
ATOM      5  C   UNL     1       3.338  -8.254   0.000  0.00  0.00    +0.009 A 
ATOM      6  C   UNL     1       3.336  -9.754   0.000  0.00  0.00    +0.001 A 
ATOM      7  C   UNL     1       4.634 -10.506   0.000  0.00  0.00    +0.001 A 
ATOM      8  C   UNL     1       5.934  -9.757   0.000  0.00  0.00    +0.012 A 
ATOM      9  C   UNL     1       5.936  -8.257   0.000  0.00  0.00    +0.032 A 
ATOM     10  C   UNL     1       7.236  -7.509   0.000  0.00  0.00    +0.212 C 
ATOM     11  O   UNL     1       8.534  -8.260   0.000  0.00  0.00    -0.285 OA
ATOM     12  C   UNL     1       7.238  -6.009   0.000  0.00  0.00    +0.119 A 
ATOM     13  N   UNL     1       8.538  -5.260   0.000  0.00  0.00    -0.251 NA
ATOM     14  C   UNL     1       8.540  -3.760   0.000  0.00  0.00    +0.112 A 
ATOM     15  C   UNL     1       7.242  -3.009   0.000  0.00  0.00    +0.032 A 
ATOM     16  C   UNL     1       5.942  -3.757   0.000  0.00  0.00    +0.032 A 
ATOM     17  C   UNL     1       5.940  -5.257   0.000  0.00  0.00    +0.026 A 
ATOM     22  C   UNL     1       4.644  -3.006   0.000  0.00  0.00    +0.173 A 
ENDROOT
BRANCH   2  18
ATOM     18  O   UNL     1       2.042  -6.003   0.000  0.00  0.00    -0.491 OA
ATOM     19  C   UNL     1       0.744  -5.251   0.000  0.00  0.00    +0.277 C 
ENDBRANCH   2  18
BRANCH   1  20
ATOM     20  O   UNL     1       2.045  -3.002   0.000  0.00  0.00    -0.488 OA
ATOM     21  C   UNL     1       2.047  -1.502   0.000  0.00  0.00    +0.277 C 
ENDBRANCH   1  20
BRANCH  22  23
ATOM     23  O   UNL     1       4.645  -1.506   0.000  0.00  0.00    -0.491 OA
ATOM     24  C   UNL     1       5.945  -0.757   0.000  0.00  0.00    +0.277 C 
ENDBRANCH  22  23
TORSDOF 3