REMARK  Name = NSC 785174
REMARK  10 active torsions:
REMARK  status: ('A' for Active; 'I' for Inactive)
REMARK    1  A    between atoms: O_1  and  C_2
REMARK    2  A    between atoms: O_1  and  C_48
REMARK    3  A    between atoms: C_3  and  O_45
REMARK    4  A    between atoms: N_8  and  C_9
REMARK    5  A    between atoms: C_19  and  O_39
REMARK    6  A    between atoms: C_20  and  O_21
REMARK    7  A    between atoms: O_21  and  C_22
REMARK    8  A    between atoms: N_27  and  C_28
REMARK    9  A    between atoms: O_39  and  C_40
REMARK   10  A    between atoms: O_45  and  C_46
REMARK                            x       y       z     vdW  Elec       q    Type
REMARK                         _______ _______ _______ _____ _____    ______ ____
ROOT
ATOM      2  C   UNL     1       7.261 -14.044   0.000  0.00  0.00    +0.204 A 
ATOM      3  C   UNL     1       7.262 -15.544   0.000  0.00  0.00    +0.165 A 
ATOM      4  C   UNL     1       5.964 -16.296   0.000  0.00  0.00    +0.053 A 
ATOM      5  C   UNL     1       4.664 -15.547   0.000  0.00  0.00    -0.034 A 
ATOM      6  C   UNL     1       3.366 -16.299   0.000  0.00  0.00    +0.051 C 
ATOM      7  C   UNL     1       2.066 -15.550   0.000  0.00  0.00    +0.089 C 
ATOM      8  N   UNL     1       2.064 -14.050   0.000  0.00  0.00    -0.298 NA
ATOM      9  C   UNL     1       0.764 -13.301   0.000  0.00  0.00    +0.105 C 
ATOM     10  C   UNL     1       3.363 -13.298   0.000  0.00  0.00    +0.095 C 
ATOM     11  C   UNL     1       2.848 -11.890   0.000  0.00  0.00    +0.059 C 
ATOM     12  C   UNL     1       3.360 -10.479   0.000  0.00  0.00    -0.045 A 
ATOM     13  C   UNL     1       4.658  -9.728   0.000  0.00  0.00    +0.007 A 
ATOM     14  C   UNL     1       4.917  -8.251   0.000  0.00  0.00    +0.046 A 
ATOM     15  C   UNL     1       3.951  -7.102   0.000  0.00  0.00    +0.129 A 
ATOM     16  O   UNL     1       3.950  -5.602   0.000  0.00  0.00    -0.452 OA
ATOM     17  C   UNL     1       4.912  -4.452   0.000  0.00  0.00    +0.178 A 
ATOM     18  C   UNL     1       3.947  -3.304   0.000  0.00  0.00    +0.204 A 
ATOM     19  C   UNL     1       4.458  -1.894   0.000  0.00  0.00    +0.165 A 
ATOM     22  C   UNL     1       5.935  -1.632   0.000  0.00  0.00    +0.053 A 
ATOM     23  C   UNL     1       6.901  -2.780   0.000  0.00  0.00    -0.034 A 
ATOM     24  C   UNL     1       8.128  -1.792   0.000  0.00  0.00    +0.051 C 
ATOM     25  C   UNL     1       9.244  -2.794   0.000  0.00  0.00    +0.089 C 
ATOM     26  N   UNL     1       9.037  -4.280   0.000  0.00  0.00    -0.298 NA
ATOM     27  C   UNL     1      10.251  -5.160   0.000  0.00  0.00    +0.105 C 
ATOM     28  C   UNL     1       7.689  -4.939   0.000  0.00  0.00    +0.095 C 
ATOM     29  C   UNL     1       8.204  -6.348   0.000  0.00  0.00    +0.059 C 
ATOM     30  C   UNL     1       7.692  -7.758   0.000  0.00  0.00    -0.045 A 
ATOM     31  C   UNL     1       6.394  -8.509   0.000  0.00  0.00    +0.007 A 
ATOM     32  C   UNL     1       6.135  -9.987   0.000  0.00  0.00    +0.046 A 
ATOM     33  C   UNL     1       7.101 -11.135   0.000  0.00  0.00    +0.129 A 
ATOM     34  C   UNL     1       8.663 -10.094   0.000  0.00  0.00    +0.046 A 
ATOM     35  O   UNL     1       7.102 -12.635   0.000  0.00  0.00    -0.452 OA
ATOM     36  C   UNL     1       8.922  -8.617   0.000  0.00  0.00    +0.007 A 
ATOM     39  C   UNL     1       6.389  -4.190   0.000  0.00  0.00    +0.019 A 
ATOM     40  C   UNL     1       2.389  -8.143   0.000  0.00  0.00    +0.046 A 
ATOM     41  C   UNL     1       2.130  -9.620   0.000  0.00  0.00    +0.007 A 
ATOM     42  C   UNL     1       4.662 -14.047   0.000  0.00  0.00    +0.019 A 
ATOM     45  C   UNL     1       5.961 -13.296   0.000  0.00  0.00    +0.178 A 
ENDROOT
BRANCH   2   1
ATOM      1  O   UNL     1       8.559 -13.293   0.000  0.00  0.00    -0.488 OA
ATOM     46  C   UNL     1       8.557 -11.793   0.000  0.00  0.00    +0.277 C 
ENDBRANCH   2   1
BRANCH  19  20
ATOM     20  O   UNL     1       3.493  -0.746   0.000  0.00  0.00    -0.491 OA
ATOM     21  C   UNL     1       2.016  -1.008   0.000  0.00  0.00    +0.277 C 
ENDBRANCH  19  20
BRANCH  18  37
ATOM     37  O   UNL     1       2.470  -3.566   0.000  0.00  0.00    -0.488 OA
ATOM     38  C   UNL     1       1.959  -4.976   0.000  0.00  0.00    +0.277 C 
ENDBRANCH  18  37
BRANCH   3  43
ATOM     43  O   UNL     1       8.562 -16.293   0.000  0.00  0.00    -0.491 OA
ATOM     44  C   UNL     1       9.860 -15.541   0.000  0.00  0.00    +0.277 C 
ENDBRANCH   3  43
TORSDOF 4