REMARK  Name = NSC 382796
REMARK  6 active torsions:
REMARK  status: ('A' for Active; 'I' for Inactive)
REMARK    1  A    between atoms: C_7  and  C_8
REMARK    2  A    between atoms: C_7  and  C_9
REMARK    3  A    between atoms: C_11  and  O_12
REMARK    4  A    between atoms: O_12  and  C_13
REMARK    5  A    between atoms: C_13  and  C_14
REMARK    6  A    between atoms: C_25  and  N_26
REMARK                            x       y       z     vdW  Elec       q    Type
REMARK                         _______ _______ _______ _____ _____    ______ ____
ROOT
ATOM      1  C   UNL     1      -7.709 -10.045   0.000  0.00  0.00    +0.001 A 
ATOM      2  C   UNL     1      -7.709 -11.545   0.000  0.00  0.00    +0.002 A 
ATOM      3  C   UNL     1      -6.410 -12.295   0.000  0.00  0.00    +0.024 A 
ATOM      4  C   UNL     1      -5.111 -11.545   0.000  0.00  0.00    +0.045 A 
ATOM      5  N   UNL     1      -3.685 -12.009   0.000  0.00  0.00    -0.246 N 
ATOM      6  C   UNL     1      -2.803 -13.222   0.000  0.00  0.00    +0.245 C 
ATOM      7  C   UNL     1      -1.376 -12.759   0.000  0.00  0.00    +0.113 C 
ATOM      8  C   UNL     1       0.050 -12.295   0.000  0.00  0.00    +0.041 C 
ATOM      9  C   UNL     1      -0.913 -14.185   0.000  0.00  0.00    +0.041 C 
ATOM     10  N   UNL     1      -1.376 -11.259   0.000  0.00  0.00    -0.230 N 
ATOM     11  C   UNL     1       0.115 -11.102   0.000  0.00  0.00    +0.406 C 
ATOM     20  O   UNL     1       0.997 -12.315   0.000  0.00  0.00    -0.226 OA
ATOM     21  O   UNL     1      -3.267 -14.649   0.000  0.00  0.00    -0.273 OA
ATOM     22  C   UNL     1      -2.803 -10.795   0.000  0.00  0.00    +0.224 C 
ATOM     23  C   UNL     1      -3.685  -9.582   0.000  0.00  0.00    +0.178 C 
ATOM     24  C   UNL     1      -2.258  -9.118   0.000  0.00  0.00    +0.091 C 
ATOM     25  C   UNL     1      -2.258  -7.618   0.000  0.00  0.00    +0.197 C 
ATOM     37  C   UNL     1      -3.685  -7.154   0.000  0.00  0.00    +0.329 C 
ATOM     38  O   UNL     1      -4.148  -5.728   0.000  0.00  0.00    -0.249 OA
ATOM     39  O   UNL     1      -4.566  -8.368   0.000  0.00  0.00    -0.448 OA
ATOM     40  C   UNL     1      -5.111 -10.045   0.000  0.00  0.00    +0.021 A 
ATOM     41  C   UNL     1      -6.410  -9.295   0.000  0.00  0.00    +0.009 A 
ENDROOT
BRANCH  25  26
ATOM     26  N   UNL     1      -1.045  -6.736   0.000  0.00  0.00    -0.220 N 
ATOM     27  C   UNL     1       0.382  -7.200   0.000  0.00  0.00    +0.255 C 
ATOM     28  C   UNL     1       1.264  -5.986   0.000  0.00  0.00    +0.049 A 
ATOM     29  C   UNL     1       2.756  -5.830   0.000  0.00  0.00    +0.014 A 
ATOM     30  C   UNL     1       3.366  -4.459   0.000  0.00  0.00    +0.001 A 
ATOM     31  C   UNL     1       2.484  -3.246   0.000  0.00  0.00    +0.001 A 
ATOM     32  C   UNL     1       0.992  -3.402   0.000  0.00  0.00    +0.014 A 
ATOM     33  C   UNL     1       0.382  -4.773   0.000  0.00  0.00    +0.049 A 
ATOM     34  O   UNL     1       0.846  -8.627   0.000  0.00  0.00    -0.270 OA
ATOM     35  C   UNL     1      -1.045  -5.236   0.000  0.00  0.00    +0.255 C 
ATOM     36  O   UNL     1      -2.258  -4.355   0.000  0.00  0.00    -0.270 OA
ENDBRANCH  25  26
BRANCH  11  12
ATOM     12  O   UNL     1       0.726  -9.732   0.000  0.00  0.00    -0.445 OA
BRANCH  12  13
ATOM     13  C   UNL     1       2.217  -9.575   0.000  0.00  0.00    +0.269 C 
BRANCH  13  14
ATOM     14  C   UNL     1       3.099 -10.788   0.000  0.00  0.00    -0.010 A 
ATOM     15  C   UNL     1       4.591 -10.631   0.000  0.00  0.00    +0.007 A 
ATOM     16  C   UNL     1       5.472 -11.845   0.000  0.00  0.00    +0.000 A 
ATOM     17  C   UNL     1       4.862 -13.215   0.000  0.00  0.00    +0.000 A 
ATOM     18  C   UNL     1       3.370 -13.372   0.000  0.00  0.00    +0.000 A 
ATOM     19  C   UNL     1       2.489 -12.159   0.000  0.00  0.00    +0.007 A 
ENDBRANCH  13  14
ENDBRANCH  12  13
ENDBRANCH  11  12
TORSDOF 4