REMARK  Name = NSC 785159#1
REMARK  4 active torsions:
REMARK  status: ('A' for Active; 'I' for Inactive)
REMARK    1  A    between atoms: C_1  and  O_2
REMARK    2  A    between atoms: C_3  and  O_20
REMARK    3  A    between atoms: N_8  and  C_9
REMARK    4  A    between atoms: O_20  and  C_21
REMARK                            x       y       z     vdW  Elec       q    Type
REMARK                         _______ _______ _______ _____ _____    ______ ____
ROOT
ATOM      1  C   UNL     1      -1.473   9.449   0.000  0.00  0.00    +0.167 A 
ATOM      4  C   UNL     1      -0.174  10.199   0.000  0.00  0.00    +0.162 A 
ATOM      5  C   UNL     1       1.125   9.449   0.000  0.00  0.00    +0.053 A 
ATOM      6  C   UNL     1       1.125   7.949   0.000  0.00  0.00    -0.037 A 
ATOM      7  C   UNL     1       2.424   7.199   0.000  0.00  0.00    +0.051 C 
ATOM      8  C   UNL     1       2.424   5.699   0.000  0.00  0.00    +0.089 C 
ATOM      9  N   UNL     1       1.125   4.949   0.000  0.00  0.00    -0.298 NA
ATOM     10  C   UNL     1       1.125   3.449   0.000  0.00  0.00    +0.105 C 
ATOM     11  C   UNL     1      -0.174   5.699   0.000  0.00  0.00    +0.092 C 
ATOM     12  C   UNL     1      -1.473   4.949   0.000  0.00  0.00    +0.059 C 
ATOM     13  C   UNL     1      -2.772   5.699   0.000  0.00  0.00    -0.038 A 
ATOM     14  C   UNL     1      -4.071   4.949   0.000  0.00  0.00    +0.004 A 
ATOM     15  C   UNL     1      -5.370   5.699   0.000  0.00  0.00    +0.000 A 
ATOM     16  C   UNL     1      -5.370   7.199   0.000  0.00  0.00    +0.001 A 
ATOM     17  C   UNL     1      -4.071   7.949   0.000  0.00  0.00    +0.009 A 
ATOM     18  C   UNL     1      -2.772   7.199   0.000  0.00  0.00    -0.011 A 
ATOM     19  C   UNL     1      -0.174   7.199   0.000  0.00  0.00    -0.015 A 
ATOM     22  C   UNL     1      -1.473   7.949   0.000  0.00  0.00    +0.032 A 
ENDROOT
BRANCH   1   2
ATOM      2  O   UNL     1      -2.772  10.199   0.000  0.00  0.00    -0.503 OA
ATOM      3  H   UNL     1      -2.772  11.136   0.000  0.00  0.00    +0.292 HD
ENDBRANCH   1   2
BRANCH   4  20
ATOM     20  O   UNL     1      -0.174  11.699   0.000  0.00  0.00    -0.491 OA
ATOM     21  C   UNL     1       1.125  12.449   0.000  0.00  0.00    +0.277 C 
ENDBRANCH   4  20
TORSDOF 2