REMARK  Name = NSC 14975
REMARK  14 active torsions:
REMARK  status: ('A' for Active; 'I' for Inactive)
REMARK    1  A    between atoms: C_8  and  O_9
REMARK    2  A    between atoms: C_10  and  O_11
REMARK    3  A    between atoms: C_12  and  C_13
REMARK    4  A    between atoms: C_17  and  O_20
REMARK    5  A    between atoms: O_20  and  C_21
REMARK    6  A    between atoms: C_21  and  C_23
REMARK    7  A    between atoms: C_23  and  C_24
REMARK    8  A    between atoms: C_23  and  C_26
REMARK    9  A    between atoms: C_23  and  O_27
REMARK   10  A    between atoms: C_24  and  C_25
REMARK   11  A    between atoms: C_31  and  C_32
REMARK   12  A    between atoms: C_34  and  O_35
REMARK   13  A    between atoms: C_36  and  O_37
REMARK   14  A    between atoms: C_38  and  C_39
REMARK                            x       y       z     vdW  Elec       q    Type
REMARK                         _______ _______ _______ _____ _____    ______ ____
ROOT
ATOM      1  C   UNL     1       4.647   3.000   0.000  0.00  0.00    +0.027 C 
ATOM      2  C   UNL     1       5.946   2.250   0.000  0.00  0.00    +0.053 C 
ATOM      3  C   UNL     1       7.245   3.000   0.000  0.00  0.00    +0.186 C 
ATOM      4  C   UNL     1       7.245   4.500   0.000  0.00  0.00    +0.047 C 
ATOM      5  C   UNL     1       5.796   4.112   0.000  0.00  0.00    +0.174 C 
ATOM      6  O   UNL     1       5.046   5.411   0.000  0.00  0.00    -0.346 OA
ATOM      7  C   UNL     1       5.946   6.750   0.000  0.00  0.00    +0.198 C 
ATOM     10  C   UNL     1       7.245   7.500   0.000  0.00  0.00    +0.177 C 
ATOM     13  C   UNL     1       8.544   6.750   0.000  0.00  0.00    +0.028 C 
ATOM     14  C   UNL     1       9.843   7.500   0.000  0.00  0.00    +0.011 C 
ATOM     15  C   UNL     1       5.946   5.250   0.000  0.00  0.00    +0.072 C 
ATOM     16  C   UNL     1       8.544   5.250   0.000  0.00  0.00    +0.059 C 
ATOM     17  C   UNL     1       9.843   4.500   0.000  0.00  0.00    +0.288 C 
ATOM     18  C   UNL     1       9.843   3.000   0.000  0.00  0.00    +0.349 C 
ATOM     19  O   UNL     1      11.142   2.250   0.000  0.00  0.00    -0.247 OA
ATOM     29  O   UNL     1       8.544   2.250   0.000  0.00  0.00    -0.458 OA
ATOM     30  C   UNL     1       3.348   2.250   0.000  0.00  0.00    -0.070 C 
ATOM     31  C   UNL     1       3.348   0.750   0.000  0.00  0.00    +0.039 C 
ATOM     32  C   UNL     1       2.049   3.000   0.000  0.00  0.00    +0.006 C 
ATOM     33  C   UNL     1       2.049   4.500   0.000  0.00  0.00    +0.166 C 
ATOM     36  C   UNL     1       3.348   5.250   0.000  0.00  0.00    +0.154 C 
ATOM     39  C   UNL     1       4.647   4.500   0.000  0.00  0.00    +0.012 C 
ATOM     40  C   UNL     1       4.647   6.000   0.000  0.00  0.00    +0.015 C 
ENDROOT
BRANCH   7   8
ATOM      8  O   UNL     1       4.922   7.846   0.000  0.00  0.00    -0.362 OA
ATOM      9  H   UNL     1       5.205   8.774   0.000  0.00  0.00    +0.213 HD
ENDBRANCH   7   8
BRANCH  10  11
ATOM     11  O   UNL     1       7.245   9.000   0.000  0.00  0.00    -0.386 OA
ATOM     12  H   UNL     1       8.085   9.485   0.000  0.00  0.00    +0.210 HD
ENDBRANCH  10  11
BRANCH  33  34
ATOM     34  O   UNL     1       0.750   5.250   0.000  0.00  0.00    -0.385 OA
ATOM     35  H   UNL     1       0.750   6.220   0.000  0.00  0.00    +0.210 HD
ENDBRANCH  33  34
BRANCH  36  37
ATOM     37  O   UNL     1       3.348   6.750   0.000  0.00  0.00    -0.388 OA
ATOM     38  H   UNL     1       4.188   7.235   0.000  0.00  0.00    +0.210 HD
ENDBRANCH  36  37
BRANCH  17  20
ATOM     20  O   UNL     1      11.142   5.250   0.000  0.00  0.00    -0.448 OA
BRANCH  20  21
ATOM     21  C   UNL     1      12.441   4.500   0.000  0.00  0.00    +0.340 C 
ATOM     22  O   UNL     1      12.441   3.000   0.000  0.00  0.00    -0.248 OA
BRANCH  21  23
ATOM     23  C   UNL     1      13.740   5.250   0.000  0.00  0.00    +0.159 C 
ATOM     26  C   UNL     1      14.490   6.549   0.000  0.00  0.00    +0.053 C 
BRANCH  23  24
ATOM     24  C   UNL     1      15.039   4.500   0.000  0.00  0.00    +0.042 C 
ATOM     25  C   UNL     1      16.339   5.250   0.000  0.00  0.00    +0.007 C 
ENDBRANCH  23  24
BRANCH  23  27
ATOM     27  O   UNL     1      12.990   6.549   0.000  0.00  0.00    -0.378 OA
ATOM     28  H   UNL     1      13.475   7.389   0.000  0.00  0.00    +0.211 HD
ENDBRANCH  23  27
ENDBRANCH  21  23
ENDBRANCH  20  21
ENDBRANCH  17  20
TORSDOF 9