REMARK  Name = NSC 2835#1
REMARK  18 active torsions:
REMARK  status: ('A' for Active; 'I' for Inactive)
REMARK    1  A    between atoms: C_2  and  C_3
REMARK    2  A    between atoms: C_3  and  C_4
REMARK    3  A    between atoms: C_4  and  C_5
REMARK    4  A    between atoms: C_5  and  C_6
REMARK    5  A    between atoms: C_6  and  C_7
REMARK    6  A    between atoms: C_7  and  C_8
REMARK    7  A    between atoms: C_8  and  C_9
REMARK    8  A    between atoms: C_9  and  C_10
REMARK    9  A    between atoms: C_10  and  O_11
REMARK   10  A    between atoms: C_13  and  C_14
REMARK   11  A    between atoms: C_14  and  C_15
REMARK   12  A    between atoms: C_15  and  C_16
REMARK   13  A    between atoms: C_15  and  O_22
REMARK   14  A    between atoms: C_16  and  C_17
REMARK   15  A    between atoms: C_17  and  C_18
REMARK   16  A    between atoms: C_18  and  C_19
REMARK   17  A    between atoms: C_19  and  C_20
REMARK   18  A    between atoms: C_20  and  C_21
REMARK                            x       y       z     vdW  Elec       q    Type
REMARK                         _______ _______ _______ _____ _____    ______ ____
ROOT
ATOM      1  C   UNL     1     -11.250  -7.245   0.000  0.00  0.00    -0.031 C 
ATOM     13  C   UNL     1      -9.750  -7.245   0.000  0.00  0.00    -0.029 C 
ENDROOT
BRANCH   1   2
ATOM      2  C   UNL     1     -12.000  -5.946   0.000  0.00  0.00    +0.027 C 
BRANCH   2   3
ATOM      3  C   UNL     1     -13.500  -5.946   0.000  0.00  0.00    +0.004 C 
BRANCH   3   4
ATOM      4  C   UNL     1     -14.250  -4.647   0.000  0.00  0.00    +0.000 C 
BRANCH   4   5
ATOM      5  C   UNL     1     -15.750  -4.647   0.000  0.00  0.00    +0.000 C 
BRANCH   5   6
ATOM      6  C   UNL     1     -16.500  -3.348   0.000  0.00  0.00    +0.001 C 
BRANCH   6   7
ATOM      7  C   UNL     1     -18.000  -3.348   0.000  0.00  0.00    +0.011 C 
BRANCH   7   8
ATOM      8  C   UNL     1     -18.750  -2.049   0.000  0.00  0.00    +0.120 C 
BRANCH   8   9
ATOM      9  C   UNL     1     -20.250  -2.049   0.000  0.00  0.00    +0.305 C 
ATOM     12  O   UNL     1     -21.000  -0.750   0.000  0.00  0.00    -0.251 OA
BRANCH   9  10
ATOM     10  O   UNL     1     -21.000  -3.348   0.000  0.00  0.00    -0.481 OA
ATOM     11  H   UNL     1     -21.937  -3.348   0.000  0.00  0.00    +0.295 HD
ENDBRANCH   9  10
ENDBRANCH   8   9
ENDBRANCH   7   8
ENDBRANCH   6   7
ENDBRANCH   5   6
ENDBRANCH   4   5
ENDBRANCH   3   4
ENDBRANCH   2   3
ENDBRANCH   1   2
BRANCH  13  14
ATOM     14  C   UNL     1      -9.000  -5.946   0.000  0.00  0.00    +0.058 C 
BRANCH  14  15
ATOM     15  C   UNL     1      -7.500  -5.946   0.000  0.00  0.00    +0.118 C 
BRANCH  15  22
ATOM     22  O   UNL     1      -7.500  -7.446   0.000  0.00  0.00    -0.391 OA
ATOM     23  H   UNL     1      -8.340  -7.931   0.000  0.00  0.00    +0.210 HD
ENDBRANCH  15  22
BRANCH  15  16
ATOM     16  C   UNL     1      -6.750  -4.647   0.000  0.00  0.00    +0.031 C 
BRANCH  16  17
ATOM     17  C   UNL     1      -5.250  -4.647   0.000  0.00  0.00    +0.003 C 
BRANCH  17  18
ATOM     18  C   UNL     1      -4.500  -3.348   0.000  0.00  0.00    +0.000 C 
BRANCH  18  19
ATOM     19  C   UNL     1      -3.000  -3.348   0.000  0.00  0.00    -0.000 C 
BRANCH  19  20
ATOM     20  C   UNL     1      -2.250  -2.049   0.000  0.00  0.00    -0.003 C 
ATOM     21  C   UNL     1      -0.750  -2.049   0.000  0.00  0.00    +0.004 C 
ENDBRANCH  19  20
ENDBRANCH  18  19
ENDBRANCH  17  18
ENDBRANCH  16  17
ENDBRANCH  15  16
ENDBRANCH  14  15
ENDBRANCH  13  14
TORSDOF 17