REMARK  Name = NSC 85998
REMARK  12 active torsions:
REMARK  status: ('A' for Active; 'I' for Inactive)
REMARK    1  A    between atoms: C_1  and  O_2
REMARK    2  A    between atoms: C_1  and  C_3
REMARK    3  A    between atoms: C_3  and  O_4
REMARK    4  A    between atoms: C_3  and  C_5
REMARK    5  A    between atoms: C_5  and  O_6
REMARK    6  A    between atoms: C_5  and  C_7
REMARK    7  A    between atoms: C_7  and  O_8
REMARK    8  A    between atoms: C_7  and  C_9
REMARK    9  A    between atoms: C_9  and  C_10
REMARK   10  A    between atoms: C_9  and  N_12
REMARK   11  A    between atoms: N_15  and  N_16
REMARK   12  A    between atoms: N_15  and  C_18
REMARK                            x       y       z     vdW  Elec       q    Type
REMARK                         _______ _______ _______ _____ _____    ______ ____
ROOT
ATOM     10  C   UNK A   1       3.522   4.399   0.000  0.00  0.00    +0.173 C 
ENDROOT
BRANCH  10  11
ATOM     11  O   UNK A   1       3.522   2.900   0.000  0.00  0.00    -0.387 OA
ATOM     12  H   UNK A   1       2.682   2.415   0.000  0.00  0.00    +0.210 HD
ENDBRANCH  10  11
BRANCH  10   7
ATOM      7  C   UNK A   1       2.223   5.149   0.000  0.00  0.00    +0.176 C 
BRANCH   7   8
ATOM      8  O   UNK A   1       2.223   6.649   0.000  0.00  0.00    -0.387 OA
ATOM      9  H   UNK A   1       3.063   7.135   0.000  0.00  0.00    +0.210 HD
ENDBRANCH   7   8
BRANCH   7   4
ATOM      4  C   UNK A   1       0.924   4.399   0.000  0.00  0.00    +0.171 C 
BRANCH   4   5
ATOM      5  O   UNK A   1       0.924   2.900   0.000  0.00  0.00    -0.387 OA
ATOM      6  H   UNK A   1       0.084   2.415   0.000  0.00  0.00    +0.210 HD
ENDBRANCH   4   5
BRANCH   4   1
ATOM      1  C   UNK A   1      -0.375   5.149   0.000  0.00  0.00    +0.189 C 
BRANCH   1   2
ATOM      2  O   UNK A   1      -1.674   4.399   0.000  0.00  0.00    -0.392 OA
ATOM      3  H   UNK A   1      -2.514   4.884   0.000  0.00  0.00    +0.210 HD
ENDBRANCH   1   2
ENDBRANCH   4   1
ENDBRANCH   7   4
ENDBRANCH  10   7
BRANCH  10  13
ATOM     13  C   UNK A   1       4.821   5.149   0.000  0.00  0.00    +0.168 C 
BRANCH  13  16
ATOM     16  N   UNK A   1       4.821   6.649   0.000  0.00  0.00    -0.286 N 
ATOM     17  H   UNK A   1       3.969   7.142   0.000  0.00  0.00    +0.151 HD
ATOM     18  C   UNK A   0       6.120   7.399   0.000  0.00  0.00    +0.324 C 
ATOM     19  O   UNK A   0       6.120   8.899   0.000  0.00  0.00    -0.251 OA
ATOM     20  N   UNK A   0       7.419   6.649   0.000  0.00  0.00    -0.144 N 
ATOM     23  C   UNK A   0       7.419   5.150   0.000  0.00  0.00    +0.166 C 
BRANCH  20  21
ATOM     21  N   UNK A   0       8.718   7.400   0.000  0.00  0.00    +0.052 NA
ATOM     22  O   UNK A   0       8.718   8.900   0.000  0.00  0.00    -0.126 OA
ENDBRANCH  20  21
ENDBRANCH  13  16
BRANCH  13  14
ATOM     14  C   UNK A   1       6.120   4.399   0.000  0.00  0.00    +0.248 C 
ATOM     15  O   UNK A   1       6.120   2.900   0.000  0.00  0.00    -0.299 OA
ENDBRANCH  13  14
ENDBRANCH  10  13
TORSDOF 11