REMARK  Name = NSC 375294
REMARK  3 active torsions:
REMARK  status: ('A' for Active; 'I' for Inactive)
REMARK    1  A    between atoms: C_1  and  C_2
REMARK    2  A    between atoms: C_6  and  C_7
REMARK    3  A    between atoms: C_6  and  C_8
REMARK                            x       y       z     vdW  Elec       q    Type
REMARK                         _______ _______ _______ _____ _____    ______ ____
ROOT
ATOM      1  C   UNL     1      -4.043  -3.292   0.000  0.00  0.00    +0.016 C 
ATOM      2  C   UNL     1      -2.732  -4.022   0.000  0.00  0.00    -0.004 C 
ATOM      3  C   UNL     1      -2.756  -2.522   0.000  0.00  0.00    +0.011 C 
ATOM      4  C   UNL     1      -1.468  -1.752   0.000  0.00  0.00    +0.001 C 
ATOM      5  C   UNL     1      -0.158  -2.482   0.000  0.00  0.00    +0.007 C 
ATOM      6  C   UNL     1      -0.135  -3.982   0.000  0.00  0.00    -0.031 C 
ATOM      7  C   UNL     1       0.400  -5.383   0.000  0.00  0.00    +0.011 C 
ATOM      8  C   UNL     1       1.338  -3.699   0.000  0.00  0.00    +0.011 C 
ATOM      9  C   UNL     1      -1.422  -4.752   0.000  0.00  0.00    +0.005 C 
ATOM     10  C   UNL     1      -1.399  -6.252   0.000  0.00  0.00    +0.010 C 
ATOM     11  C   UNL     1      -2.686  -7.022   0.000  0.00  0.00    +0.043 C 
ATOM     12  C   UNL     1      -3.997  -6.292   0.000  0.00  0.00    +0.040 C 
ATOM     13  C   UNL     1      -5.416  -6.777   0.000  0.00  0.00    +0.336 C 
ATOM     14  O   UNL     1      -6.316  -5.578   0.000  0.00  0.00    -0.457 OA
ATOM     15  C   UNL     1      -5.453  -4.351   0.000  0.00  0.00    +0.264 C 
ATOM     16  O   UNL     1      -5.857  -8.211   0.000  0.00  0.00    -0.245 OA
ATOM     17  C   UNL     1      -4.020  -4.792   0.000  0.00  0.00    -0.017 C 
ENDROOT
TORSDOF 0