REMARK  Name = NSC 85239
REMARK  3 active torsions:
REMARK  status: ('A' for Active; 'I' for Inactive)
REMARK    1  A    between atoms: C_7  and  C_8
REMARK    2  A    between atoms: C_13  and  O_14
REMARK    3  A    between atoms: C_15  and  C_16
REMARK                            x       y       z     vdW  Elec       q    Type
REMARK                         _______ _______ _______ _____ _____    ______ ____
ROOT
ATOM      1  C   UNL     1       0.013   5.434   0.000  0.00  0.00    +0.036 C 
ATOM      2  C   UNL     1      -1.391   5.961   0.000  0.00  0.00    +0.020 C 
ATOM      3  C   UNL     1       0.412   3.988   0.000  0.00  0.00    +0.335 C 
ATOM      4  O   UNL     1      -0.523   2.815   0.000  0.00  0.00    -0.245 OA
ATOM      5  O   UNL     1       1.911   3.921   0.000  0.00  0.00    -0.456 OA
ATOM      6  C   UNL     1       2.438   5.325   0.000  0.00  0.00    +0.201 C 
ATOM      7  C   UNL     1       3.900   5.659   0.000  0.00  0.00    +0.100 C 
ATOM      8  C   UNL     1       3.501   4.213   0.000  0.00  0.00    +0.026 C 
ATOM      9  C   UNL     1       4.984   4.622   0.000  0.00  0.00    +0.168 C 
ATOM     10  O   UNL     1       4.783   3.136   0.000  0.00  0.00    -0.292 OA
ATOM     11  C   UNL     1       6.305   5.333   0.000  0.00  0.00    +0.045 C 
ATOM     12  C   UNL     1       6.037   6.809   0.000  0.00  0.00    +0.012 C 
ATOM     13  C   UNL     1       4.551   7.010   0.000  0.00  0.00    +0.103 C 
ATOM     16  C   UNL     1       3.900   8.362   0.000  0.00  0.00    +0.023 C 
ATOM     17  C   UNL     1       4.835   9.534   0.000  0.00  0.00    +0.011 C 
ATOM     18  C   UNL     1       2.438   8.695   0.000  0.00  0.00    +0.007 C 
ATOM     19  C   UNL     1       1.265   7.760   0.000  0.00  0.00    +0.012 C 
ATOM     20  C   UNL     1       1.265   6.260   0.000  0.00  0.00    +0.067 C 
ENDROOT
BRANCH  13  14
ATOM     14  O   UNL     1       5.432   8.224   0.000  0.00  0.00    -0.383 OA
ATOM     15  H   UNL     1       6.397   8.122   0.000  0.00  0.00    +0.211 HD
ENDBRANCH  13  14
TORSDOF 1