REMARK  Name = NSC 36398
REMARK  6 active torsions:
REMARK  status: ('A' for Active; 'I' for Inactive)
REMARK    1  A    between atoms: C_1  and  O_2
REMARK    2  A    between atoms: C_6  and  C_7
REMARK    3  A    between atoms: C_9  and  O_10
REMARK    4  A    between atoms: C_11  and  O_12
REMARK    5  A    between atoms: C_15  and  O_16
REMARK    6  A    between atoms: C_21  and  O_22
REMARK                            x       y       z     vdW  Elec       q    Type
REMARK                         _______ _______ _______ _____ _____    ______ ____
ROOT
ATOM      1  C   UNL     1      -0.375   6.649   0.000  0.00  0.00    +0.162 A 
ATOM      4  C   UNL     1       0.924   7.399   0.000  0.00  0.00    +0.095 A 
ATOM      5  C   UNL     1       2.223   6.649   0.000  0.00  0.00    +0.136 A 
ATOM      6  O   UNL     1       3.522   7.399   0.000  0.00  0.00    -0.480 OA
ATOM      7  C   UNL     1       4.821   6.649   0.000  0.00  0.00    +0.240 C 
ATOM     18  C   UNL     1       4.821   5.149   0.000  0.00  0.00    +0.230 C 
ATOM     21  C   UNL     1       3.522   4.399   0.000  0.00  0.00    +0.199 C 
ATOM     22  O   UNL     1       3.522   2.900   0.000  0.00  0.00    -0.289 OA
ATOM     23  C   UNL     1       2.223   5.149   0.000  0.00  0.00    +0.065 A 
ATOM     24  C   UNL     1       0.924   4.399   0.000  0.00  0.00    +0.064 A 
ATOM     25  C   UNL     1      -0.375   5.149   0.000  0.00  0.00    +0.159 A 
ENDROOT
BRANCH   7   8
ATOM      8  C   UNL     1       6.120   7.399   0.000  0.00  0.00    -0.001 A 
ATOM      9  C   UNL     1       7.419   6.649   0.000  0.00  0.00    +0.056 A 
ATOM     10  C   UNL     1       8.718   7.399   0.000  0.00  0.00    +0.159 A 
ATOM     13  C   UNL     1       8.718   8.899   0.000  0.00  0.00    +0.158 A 
ATOM     16  C   UNL     1       7.419   9.649   0.000  0.00  0.00    +0.049 A 
ATOM     17  C   UNL     1       6.120   8.899   0.000  0.00  0.00    +0.011 A 
BRANCH  10  11
ATOM     11  O   UNL     1      10.017   6.649   0.000  0.00  0.00    -0.503 OA
ATOM     12  H   UNL     1      10.017   5.713   0.000  0.00  0.00    +0.292 HD
ENDBRANCH  10  11
BRANCH  13  14
ATOM     14  O   UNL     1      10.017   9.649   0.000  0.00  0.00    -0.503 OA
ATOM     15  H   UNL     1      10.829   9.181   0.000  0.00  0.00    +0.292 HD
ENDBRANCH  13  14
ENDBRANCH   7   8
BRANCH   1   2
ATOM      2  O   UNL     1      -1.674   7.399   0.000  0.00  0.00    -0.503 OA
ATOM      3  H   UNL     1      -1.674   8.336   0.000  0.00  0.00    +0.292 HD
ENDBRANCH   1   2
BRANCH  18  19
ATOM     19  O   UNL     1       6.120   4.399   0.000  0.00  0.00    -0.380 OA
ATOM     20  H   UNL     1       6.120   3.430   0.000  0.00  0.00    +0.211 HD
ENDBRANCH  18  19
BRANCH  25  26
ATOM     26  O   UNL     1      -1.674   4.399   0.000  0.00  0.00    -0.503 OA
ATOM     27  H   UNL     1      -2.485   4.868   0.000  0.00  0.00    +0.292 HD
ENDBRANCH  25  26
TORSDOF 6