REMARK  Name = NSC 8519
REMARK  5 active torsions:
REMARK  status: ('A' for Active; 'I' for Inactive)
REMARK    1  A    between atoms: C_2  and  C_3
REMARK    2  A    between atoms: C_7  and  O_8
REMARK    3  A    between atoms: O_8  and  C_9
REMARK    4  A    between atoms: C_15  and  O_16
REMARK    5  A    between atoms: O_16  and  C_17
REMARK                            x       y       z     vdW  Elec       q    Type
REMARK                         _______ _______ _______ _____ _____    ______ ____
ROOT
ATOM      1  O   UNL     1      -7.535  -3.000   0.000  0.00  0.00    -0.456 OA
ATOM      2  C   UNL     1      -8.834  -3.750   0.000  0.00  0.00    +0.106 A 
ATOM      3  C   UNL     1     -10.133  -3.000   0.000  0.00  0.00    +0.086 C 
ATOM      4  C   UNL     1      -8.834  -5.250   0.000  0.00  0.00    +0.093 A 
ATOM      5  C   UNL     1      -7.535  -6.000   0.000  0.00  0.00    +0.196 A 
ATOM      6  C   UNL     1      -6.236  -5.250   0.000  0.00  0.00    +0.110 A 
ATOM      7  C   UNL     1      -4.937  -6.000   0.000  0.00  0.00    +0.145 A 
ATOM     10  C   UNL     1      -3.638  -5.250   0.000  0.00  0.00    +0.066 A 
ATOM     11  C   UNL     1      -2.212  -5.713   0.000  0.00  0.00    +0.053 A 
ATOM     12  C   UNL     1      -1.330  -4.500   0.000  0.00  0.00    +0.196 A 
ATOM     13  O   UNL     1      -2.212  -3.287   0.000  0.00  0.00    -0.459 OA
ATOM     14  C   UNL     1      -3.638  -3.750   0.000  0.00  0.00    +0.183 A 
ATOM     15  C   UNL     1      -4.937  -3.000   0.000  0.00  0.00    +0.206 A 
ATOM     18  O   UNL     1      -7.535  -7.500   0.000  0.00  0.00    -0.287 OA
ATOM     19  C   UNL     1      -6.236  -3.750   0.000  0.00  0.00    +0.187 A 
ENDROOT
BRANCH   7   8
ATOM      8  O   UNL     1      -4.937  -7.500   0.000  0.00  0.00    -0.494 OA
ATOM      9  C   UNL     1      -6.236  -8.250   0.000  0.00  0.00    +0.277 C 
ENDBRANCH   7   8
BRANCH  15  16
ATOM     16  O   UNL     1      -4.937  -1.500   0.000  0.00  0.00    -0.488 OA
ATOM     17  C   UNL     1      -6.236  -0.750   0.000  0.00  0.00    +0.277 C 
ENDBRANCH  15  16
TORSDOF 2