REMARK  Name = NSC 248958
REMARK  11 active torsions:
REMARK  status: ('A' for Active; 'I' for Inactive)
REMARK    1  A    between atoms: C_1  and  C_2
REMARK    2  A    between atoms: C_1  and  C_23
REMARK    3  A    between atoms: C_3  and  C_4
REMARK    4  A    between atoms: C_5  and  C_6
REMARK    5  A    between atoms: C_6  and  C_7
REMARK    6  A    between atoms: C_6  and  C_8
REMARK    7  A    between atoms: C_8  and  C_9
REMARK    8  A    between atoms: C_9  and  C_10
REMARK    9  A    between atoms: C_10  and  C_11
REMARK   10  A    between atoms: C_10  and  O_21
REMARK   11  A    between atoms: C_11  and  C_12
REMARK                            x       y       z     vdW  Elec       q    Type
REMARK                         _______ _______ _______ _____ _____    ______ ____
ROOT
ATOM     10  C   UNL     1       4.922   2.525   0.000  0.00  0.00    +0.122 C 
ENDROOT
BRANCH  10  21
ATOM     21  O   UNL     1       3.623   3.275   0.000  0.00  0.00    -0.391 OA
ATOM     22  H   UNL     1       3.623   4.244   0.000  0.00  0.00    +0.210 HD
ENDBRANCH  10  21
BRANCH  10   9
ATOM      9  C   UNL     1       6.221   3.275   0.000  0.00  0.00    +0.106 C 
BRANCH   9   8
ATOM      8  C   UNL     1       6.221   4.774   0.000  0.00  0.00    +0.142 C 
ATOM     23  O   UNL     1       7.520   5.524   0.000  0.00  0.00    -0.297 OA
BRANCH   8   6
ATOM      6  C   UNL     1       4.922   5.524   0.000  0.00  0.00    +0.075 C 
ATOM      7  C   UNL     1       3.623   4.774   0.000  0.00  0.00    +0.020 C 
BRANCH   6   5
ATOM      1  C   UNL     1       6.221   7.774   0.000  0.00  0.00    -0.054 C 
ATOM      5  C   UNL     1       4.922   7.024   0.000  0.00  0.00    -0.013 C 
ATOM     24  C   UNL     1       6.221   9.274   0.000  0.00  0.00    +0.043 C 
BRANCH   1   2
ATOM      2  C   UNL     1       7.520   7.024   0.000  0.00  0.00    -0.002 C 
ATOM      3  C   UNL     1       8.819   7.774   0.000  0.00  0.00    -0.030 C 
ATOM      4  C   UNL     1       8.819   9.274   0.000  0.00  0.00    +0.035 C 
ENDBRANCH   1   2
ENDBRANCH   6   5
ENDBRANCH   8   6
ENDBRANCH   9   8
ENDBRANCH  10   9
BRANCH  10  11
ATOM     11  C   UNL     1       4.922   1.025   0.000  0.00  0.00    +0.036 C 
BRANCH  11  12
ATOM     12  C   UNL     1       6.221   0.275   0.000  0.00  0.00    +0.009 C 
ATOM     13  C   UNL     1       7.520   1.025   0.000  0.00  0.00    +0.100 C 
ATOM     14  C   UNL     1       8.819   0.275   0.000  0.00  0.00    +0.219 C 
ATOM     15  N   UNL     1       8.819  -1.226   0.000  0.00  0.00    -0.256 N 
ATOM     16  H   UNL     1      10.118  -1.976   0.000  0.00  0.00    +0.157 HD
ATOM     17  C   UNL     1       7.520  -1.976   0.000  0.00  0.00    +0.219 C 
ATOM     18  O   UNL     1       7.520  -3.475   0.000  0.00  0.00    -0.275 OA
ATOM     19  O   UNL     1      10.118   1.025   0.000  0.00  0.00    -0.275 OA
ATOM     20  C   UNL     1       6.221  -1.226   0.000  0.00  0.00    +0.100 C 
ENDBRANCH  11  12
ENDBRANCH  10  11
TORSDOF 8