REMARK  Name = NSC 14664
REMARK  2 active torsions:
REMARK  status: ('A' for Active; 'I' for Inactive)
REMARK    1  A    between atoms: C_1  and  O_2
REMARK    2  A    between atoms: C_6  and  O_7
REMARK                            x       y       z     vdW  Elec       q    Type
REMARK                         _______ _______ _______ _____ _____    ______ ____
ROOT
ATOM      1  C   UNL     1      -2.511  -3.816   0.000  0.00  0.00    +0.245 A 
ATOM      4  C   UNL     1      -1.212  -4.566   0.000  0.00  0.00    +0.147 A 
ATOM      5  C   UNL     1      -1.212  -6.066   0.000  0.00  0.00    +0.188 A 
ATOM      6  N   UNL     1      -2.511  -6.816   0.000  0.00  0.00    -0.174 NA
ATOM      7  C   UNL     1      -3.810  -6.066   0.000  0.00  0.00    +0.321 A 
ATOM     10  N   UNL     1       0.215  -6.529   0.000  0.00  0.00    -0.216 NA
ATOM     11  C   UNL     1       1.097  -5.316   0.000  0.00  0.00    +0.199 A 
ATOM     12  N   UNL     1       0.215  -4.102   0.000  0.00  0.00    -0.339 N 
ATOM     13  H   UNL     1       0.679  -2.675   0.000  0.00  0.00    +0.167 HD
ATOM     14  N   UNL     1      -3.810  -4.566   0.000  0.00  0.00    -0.158 NA
ENDROOT
BRANCH   1   2
ATOM      2  O   UNL     1      -2.511  -2.316   0.000  0.00  0.00    -0.491 OA
ATOM      3  H   UNL     1      -1.699  -1.847   0.000  0.00  0.00    +0.294 HD
ENDBRANCH   1   2
BRANCH   7   8
ATOM      8  O   UNL     1      -5.109  -6.816   0.000  0.00  0.00    -0.478 OA
ATOM      9  H   UNL     1      -5.920  -6.347   0.000  0.00  0.00    +0.295 HD
ENDBRANCH   7   8
TORSDOF 2