REMARK  Name = NSC 227186
REMARK  19 active torsions:
REMARK  status: ('A' for Active; 'I' for Inactive)
REMARK    1  A    between atoms: C_1  and  O_2
REMARK    2  A    between atoms: O_2  and  C_3
REMARK    3  A    between atoms: C_4  and  O_5
REMARK    4  A    between atoms: C_6  and  O_7
REMARK    5  A    between atoms: O_7  and  C_8
REMARK    6  A    between atoms: C_8  and  C_9
REMARK    7  A    between atoms: C_11  and  C_12
REMARK    8  A    between atoms: C_16  and  O_17
REMARK    9  A    between atoms: O_17  and  C_18
REMARK   10  A    between atoms: C_19  and  C_20
REMARK   11  A    between atoms: C_19  and  C_21
REMARK   12  A    between atoms: C_29  and  N_30
REMARK   13  A    between atoms: C_31  and  C_32
REMARK   14  A    between atoms: C_34  and  C_35
REMARK   15  A    between atoms: C_35  and  C_36
REMARK   16  A    between atoms: C_37  and  C_38
REMARK   17  A    between atoms: C_37  and  C_39
REMARK   18  A    between atoms: C_40  and  O_41
REMARK   19  A    between atoms: C_45  and  O_46
REMARK                            x       y       z     vdW  Elec       q    Type
REMARK                         _______ _______ _______ _____ _____    ______ ____
ROOT
ATOM      1  C   UNL     1       9.619   6.750   0.000  0.00  0.00    +0.146 A 
ATOM     25  C   UNL     1      10.918   7.500   0.000  0.00  0.00    +0.126 A 
ATOM     26 CL   UNL     1      10.918   9.000   0.000  0.00  0.00    -0.076 Cl
ATOM     27  C   UNL     1      12.217   6.750   0.000  0.00  0.00    +0.164 A 
ATOM     28  O   UNL     1      13.516   7.500   0.000  0.00  0.00    -0.419 OA
ATOM     29  C   UNL     1      14.815   6.750   0.000  0.00  0.00    +0.362 A 
ATOM     30  O   UNL     1      16.114   7.500   0.000  0.00  0.00    -0.243 OA
ATOM     31  C   UNL     1      14.815   5.250   0.000  0.00  0.00    +0.162 A 
ATOM     49  C   UNL     1      13.516   4.500   0.000  0.00  0.00    +0.156 A 
ATOM     52  C   UNL     1      12.217   5.250   0.000  0.00  0.00    +0.063 A 
ATOM     53  C   UNL     1      10.918   4.500   0.000  0.00  0.00    +0.019 A 
ATOM     54  C   UNL     1       9.619   5.250   0.000  0.00  0.00    +0.048 A 
ENDROOT
BRANCH  31  32
ATOM     32  N   UNL     1      16.114   4.500   0.000  0.00  0.00    -0.273 N 
ATOM     33  H   UNL     1      16.114   3.516   0.000  0.00  0.00    +0.155 HD
ATOM     34  C   UNL     1      17.413   5.250   0.000  0.00  0.00    +0.249 C 
ATOM     48  O   UNL     1      17.413   6.750   0.000  0.00  0.00    -0.270 OA
BRANCH  34  35
ATOM     35  C   UNL     1      18.712   4.500   0.000  0.00  0.00    +0.038 A 
ATOM     36  C   UNL     1      20.012   5.250   0.000  0.00  0.00    +0.020 A 
ATOM     37  C   UNL     1      21.311   4.500   0.000  0.00  0.00    -0.002 A 
ATOM     43  C   UNL     1      21.311   3.000   0.000  0.00  0.00    +0.120 A 
ATOM     46  C   UNL     1      20.012   2.250   0.000  0.00  0.00    +0.046 A 
ATOM     47  C   UNL     1      18.712   3.000   0.000  0.00  0.00    +0.016 A 
BRANCH  43  44
ATOM     44  O   UNL     1      22.610   2.250   0.000  0.00  0.00    -0.506 OA
ATOM     45  H   UNL     1      22.610   1.313   0.000  0.00  0.00    +0.292 HD
ENDBRANCH  43  44
BRANCH  37  38
ATOM     38  C   UNL     1      22.610   5.250   0.000  0.00  0.00    +0.066 C 
BRANCH  38  39
ATOM     39  C   UNL     1      23.909   4.500   0.000  0.00  0.00    -0.023 C 
ATOM     40  C   UNL     1      25.208   5.250   0.000  0.00  0.00    -0.079 C 
ATOM     41  C   UNL     1      25.208   6.750   0.000  0.00  0.00    +0.038 C 
ATOM     42  C   UNL     1      26.507   4.500   0.000  0.00  0.00    +0.038 C 
ENDBRANCH  38  39
ENDBRANCH  37  38
ENDBRANCH  34  35
ENDBRANCH  31  32
BRANCH  49  50
ATOM     50  O   UNL     1      13.516   3.000   0.000  0.00  0.00    -0.504 OA
ATOM     51  H   UNL     1      12.705   2.531   0.000  0.00  0.00    +0.292 HD
ENDBRANCH  49  50
BRANCH   1   2
ATOM      2  O   UNL     1       8.320   7.500   0.000  0.00  0.00    -0.459 OA
BRANCH   2   3
ATOM      3  C   UNL     1       7.021   6.750   0.000  0.00  0.00    +0.341 C 
ATOM      4  C   UNL     1       7.021   5.250   0.000  0.00  0.00    +0.226 C 
ATOM      7  C   UNL     1       5.722   4.500   0.000  0.00  0.00    +0.243 C 
ATOM     18  C   UNL     1       4.423   5.250   0.000  0.00  0.00    +0.192 C 
ATOM     21  C   UNL     1       4.423   6.750   0.000  0.00  0.00    +0.098 C 
ATOM     22  C   UNL     1       5.722   6.000   0.000  0.00  0.00    +0.044 C 
ATOM     23  C   UNL     1       3.124   7.500   0.000  0.00  0.00    +0.044 C 
ATOM     24  O   UNL     1       5.722   7.500   0.000  0.00  0.00    -0.331 OA
BRANCH   4   5
ATOM      5  O   UNL     1       8.320   4.500   0.000  0.00  0.00    -0.382 OA
ATOM      6  H   UNL     1       8.320   3.530   0.000  0.00  0.00    +0.210 HD
ENDBRANCH   4   5
BRANCH  18  19
ATOM     19  O   UNL     1       3.124   4.500   0.000  0.00  0.00    -0.373 OA
ATOM     20  C   UNL     1       1.825   5.250   0.000  0.00  0.00    +0.194 C 
ENDBRANCH  18  19
BRANCH   7   8
ATOM      8  O   UNL     1       5.722   3.000   0.000  0.00  0.00    -0.451 OA
BRANCH   8   9
ATOM      9  C   UNL     1       4.313   2.487   0.000  0.00  0.00    +0.356 C 
ATOM     17  O   UNL     1       3.164   3.451   0.000  0.00  0.00    -0.243 OA
BRANCH   9  10
ATOM     10  C   UNL     1       4.052   1.010   0.000  0.00  0.00    +0.125 A 
ATOM     11  N   UNL     1       5.094  -0.069   0.000  0.00  0.00    -0.353 N 
ATOM     12  H   UNL     1       6.069   0.068   0.000  0.00  0.00    +0.166 HD
ATOM     13  C   UNL     1       4.390  -1.394   0.000  0.00  0.00    +0.013 A 
ATOM     14  C   UNL     1       5.047  -2.742   0.000  0.00  0.00    +0.063 C 
ATOM     15  C   UNL     1       2.913  -1.133   0.000  0.00  0.00    +0.023 A 
ATOM     16  C   UNL     1       2.704   0.352   0.000  0.00  0.00    +0.034 A 
ENDBRANCH   9  10
ENDBRANCH   8   9
ENDBRANCH   7   8
ENDBRANCH   2   3
ENDBRANCH   1   2
TORSDOF 13