REMARK  Name = NSC 7668
REMARK  19 active torsions:
REMARK  status: ('A' for Active; 'I' for Inactive)
REMARK    1  A    between atoms: C_2  and  O_3
REMARK    2  A    between atoms: C_2  and  C_4
REMARK    3  A    between atoms: C_2  and  C_11
REMARK    4  A    between atoms: C_4  and  C_5
REMARK    5  A    between atoms: C_5  and  C_6
REMARK    6  A    between atoms: C_6  and  C_7
REMARK    7  A    between atoms: C_7  and  C_8
REMARK    8  A    between atoms: C_8  and  C_9
REMARK    9  A    between atoms: C_9  and  O_10
REMARK   10  A    between atoms: C_11  and  O_12
REMARK   11  A    between atoms: C_11  and  C_13
REMARK   12  A    between atoms: C_13  and  C_14
REMARK   13  A    between atoms: C_14  and  C_15
REMARK   14  A    between atoms: C_15  and  C_16
REMARK   15  A    between atoms: C_16  and  C_17
REMARK   16  A    between atoms: C_17  and  C_18
REMARK   17  A    between atoms: C_18  and  C_19
REMARK   18  A    between atoms: C_19  and  C_20
REMARK   19  A    between atoms: C_20  and  O_21
REMARK                            x       y       z     vdW  Elec       q    Type
REMARK                         _______ _______ _______ _____ _____    ______ ____
ROOT
ATOM     12  C   UNL     1      -2.491  -1.301   0.000  0.00  0.00    +0.143 C 
ENDROOT
BRANCH  12  13
ATOM     13  O   UNL     1      -1.061  -0.848   0.000  0.00  0.00    -0.389 OA
ATOM     14  H   UNL     1      -0.345  -1.503   0.000  0.00  0.00    +0.210 HD
ENDBRANCH  12  13
BRANCH  12   1
ATOM      1  C   UNL     1      -3.956  -0.977   0.000  0.00  0.00    +0.143 C 
BRANCH   1   2
ATOM      2  O   UNL     1      -4.280  -2.442   0.000  0.00  0.00    -0.389 OA
ATOM      3  H   UNL     1      -5.205  -2.734   0.000  0.00  0.00    +0.210 HD
ENDBRANCH   1   2
BRANCH   1   4
ATOM      4  C   UNL     1      -4.408   0.453   0.000  0.00  0.00    +0.034 C 
BRANCH   4   5
ATOM      5  C   UNL     1      -3.396   1.560   0.000  0.00  0.00    +0.003 C 
BRANCH   5   6
ATOM      6  C   UNL     1      -3.848   2.990   0.000  0.00  0.00    +0.000 C 
BRANCH   6   7
ATOM      7  C   UNL     1      -2.835   4.097   0.000  0.00  0.00    +0.002 C 
BRANCH   7   8
ATOM      8  C   UNL     1      -1.370   3.773   0.000  0.00  0.00    +0.028 C 
BRANCH   8   9
ATOM      9  C   UNL     1      -0.358   4.880   0.000  0.00  0.00    +0.156 C 
BRANCH   9  10
ATOM     10  O   UNL     1       1.107   4.556   0.000  0.00  0.00    -0.395 OA
ATOM     11  H   UNL     1       1.399   3.632   0.000  0.00  0.00    +0.209 HD
ENDBRANCH   9  10
ENDBRANCH   8   9
ENDBRANCH   7   8
ENDBRANCH   6   7
ENDBRANCH   5   6
ENDBRANCH   4   5
ENDBRANCH   1   4
ENDBRANCH  12   1
BRANCH  12  15
ATOM     15  C   UNL     1      -2.039  -2.731   0.000  0.00  0.00    +0.034 C 
BRANCH  15  16
ATOM     16  C   UNL     1      -0.575  -3.054   0.000  0.00  0.00    +0.003 C 
BRANCH  16  17
ATOM     17  C   UNL     1       0.438  -1.948   0.000  0.00  0.00    +0.000 C 
BRANCH  17  18
ATOM     18  C   UNL     1       1.903  -2.271   0.000  0.00  0.00    +0.000 C 
BRANCH  18  19
ATOM     19  C   UNL     1       2.915  -1.165   0.000  0.00  0.00    +0.001 C 
BRANCH  19  20
ATOM     20  C   UNL     1       4.380  -1.488   0.000  0.00  0.00    +0.011 C 
BRANCH  20  21
ATOM     21  C   UNL     1       5.393  -0.382   0.000  0.00  0.00    +0.120 C 
BRANCH  21  22
ATOM     22  C   UNL     1       6.857  -0.705   0.000  0.00  0.00    +0.305 C 
ATOM     25  O   UNL     1       7.870   0.402   0.000  0.00  0.00    -0.251 OA
BRANCH  22  23
ATOM     23  O   UNL     1       7.309  -2.135   0.000  0.00  0.00    -0.481 OA
ATOM     24  H   UNL     1       6.677  -2.827   0.000  0.00  0.00    +0.295 HD
ENDBRANCH  22  23
ENDBRANCH  21  22
ENDBRANCH  20  21
ENDBRANCH  19  20
ENDBRANCH  18  19
ENDBRANCH  17  18
ENDBRANCH  16  17
ENDBRANCH  15  16
ENDBRANCH  12  15
TORSDOF 19