REMARK  Name = NSC 2080
REMARK  19 active torsions:
REMARK  status: ('A' for Active; 'I' for Inactive)
REMARK    1  A    between atoms: C_2  and  C_3
REMARK    2  A    between atoms: C_2  and  O_5
REMARK    3  A    between atoms: C_3  and  O_4
REMARK    4  A    between atoms: O_5  and  C_6
REMARK    5  A    between atoms: C_7  and  O_8
REMARK    6  A    between atoms: C_9  and  O_10
REMARK    7  A    between atoms: C_11  and  O_12
REMARK    8  A    between atoms: C_13  and  C_14
REMARK    9  A    between atoms: C_14  and  O_15
REMARK   10  A    between atoms: C_17  and  O_18
REMARK   11  A    between atoms: O_18  and  C_19
REMARK   12  A    between atoms: C_22  and  C_23
REMARK   13  A    between atoms: C_23  and  O_24
REMARK   14  A    between atoms: C_25  and  O_26
REMARK   15  A    between atoms: C_27  and  O_28
REMARK   16  A    between atoms: C_29  and  O_30
REMARK   17  A    between atoms: C_31  and  O_32
REMARK   18  A    between atoms: C_33  and  C_34
REMARK   19  A    between atoms: C_34  and  O_35
REMARK                            x       y       z     vdW  Elec       q    Type
REMARK                         _______ _______ _______ _____ _____    ______ ____
ROOT
ATOM      1  O   UNL     1      -0.307   1.565   0.000  0.00  0.00    -0.336 OA
ATOM      2  C   UNL     1       0.683   0.439   0.000  0.00  0.00    +0.226 C 
ATOM     22  C   UNL     1      -0.083  -0.851   0.000  0.00  0.00    +0.214 C 
ATOM     39  C   UNL     1      -1.546  -0.521   0.000  0.00  0.00    +0.180 C 
ATOM     42  C   UNL     1      -1.685   0.972   0.000  0.00  0.00    +0.178 C 
ENDROOT
BRANCH  39  40
ATOM     40  O   UNL     1      -2.673  -1.512   0.000  0.00  0.00    -0.386 OA
ATOM     41  H   UNL     1      -3.592  -1.200   0.000  0.00  0.00    +0.210 HD
ENDBRANCH  39  40
BRANCH   2   3
ATOM      3  C   UNL     1       1.886  -0.458   0.000  0.00  0.00    +0.223 C 
BRANCH   3   4
ATOM      4  O   UNL     1       3.263   0.135   0.000  0.00  0.00    -0.390 OA
ATOM      5  H   UNL     1       4.041  -0.444   0.000  0.00  0.00    +0.210 HD
ENDBRANCH   3   4
ENDBRANCH   2   3
BRANCH   2   6
ATOM      6  O   UNL     1       1.700   1.541   0.000  0.00  0.00    -0.312 OA
BRANCH   6   7
ATOM      7  C   UNL     1       1.254   2.973   0.000  0.00  0.00    +0.285 C 
ATOM      8  C   UNL     1      -0.209   3.303   0.000  0.00  0.00    +0.201 C 
ATOM     11  C   UNL     1      -0.655   4.735   0.000  0.00  0.00    +0.179 C 
ATOM     14  C   UNL     1       0.362   5.837   0.000  0.00  0.00    +0.177 C 
ATOM     17  C   UNL     1       1.825   5.508   0.000  0.00  0.00    +0.178 C 
ATOM     21  O   UNL     1       2.271   4.075   0.000  0.00  0.00    -0.340 OA
BRANCH   8   9
ATOM      9  O   UNL     1      -1.226   2.200   0.000  0.00  0.00    -0.384 OA
ATOM     10  H   UNL     1      -2.173   2.414   0.000  0.00  0.00    +0.210 HD
ENDBRANCH   8   9
BRANCH  11  12
ATOM     12  O   UNL     1      -2.119   5.065   0.000  0.00  0.00    -0.386 OA
ATOM     13  H   UNL     1      -2.407   5.991   0.000  0.00  0.00    +0.210 HD
ENDBRANCH  11  12
BRANCH  14  15
ATOM     15  O   UNL     1      -0.084   7.269   0.000  0.00  0.00    -0.386 OA
ATOM     16  H   UNL     1       0.574   7.982   0.000  0.00  0.00    +0.210 HD
ENDBRANCH  14  15
BRANCH  17  18
ATOM     18  C   UNL     1       2.843   6.610   0.000  0.00  0.00    +0.190 C 
BRANCH  18  19
ATOM     19  O   UNL     1       4.306   6.280   0.000  0.00  0.00    -0.392 OA
ATOM     20  H   UNL     1       4.594   5.354   0.000  0.00  0.00    +0.210 HD
ENDBRANCH  18  19
ENDBRANCH  17  18
ENDBRANCH   6   7
ENDBRANCH   2   6
BRANCH  22  23
ATOM     23  O   UNL     1       0.510  -2.229   0.000  0.00  0.00    -0.337 OA
BRANCH  23  24
ATOM     24  C   UNL     1      -0.386  -3.432   0.000  0.00  0.00    +0.282 C 
ATOM     25  O   UNL     1      -1.640  -4.255   0.000  0.00  0.00    -0.341 OA
ATOM     26  C   UNL     1      -1.554  -5.753   0.000  0.00  0.00    +0.178 C 
ATOM     30  C   UNL     1      -0.214  -6.427   0.000  0.00  0.00    +0.177 C 
ATOM     33  C   UNL     1       1.040  -5.603   0.000  0.00  0.00    +0.179 C 
ATOM     36  C   UNL     1       0.954  -4.106   0.000  0.00  0.00    +0.201 C 
BRANCH  30  31
ATOM     31  O   UNL     1      -0.127  -7.924   0.000  0.00  0.00    -0.386 OA
ATOM     32  H   UNL     1      -0.938  -8.457   0.000  0.00  0.00    +0.210 HD
ENDBRANCH  30  31
BRANCH  33  34
ATOM     34  O   UNL     1       2.380  -6.277   0.000  0.00  0.00    -0.386 OA
ATOM     35  H   UNL     1       2.436  -7.245   0.000  0.00  0.00    +0.210 HD
ENDBRANCH  33  34
BRANCH  36  37
ATOM     37  O   UNL     1       2.208  -3.282   0.000  0.00  0.00    -0.384 OA
ATOM     38  H   UNL     1       3.074  -3.718   0.000  0.00  0.00    +0.210 HD
ENDBRANCH  36  37
BRANCH  26  27
ATOM     27  C   UNL     1      -2.807  -6.576   0.000  0.00  0.00    +0.190 C 
BRANCH  27  28
ATOM     28  O   UNL     1      -2.721  -8.074   0.000  0.00  0.00    -0.392 OA
ATOM     29  H   UNL     1      -3.532  -8.606   0.000  0.00  0.00    +0.210 HD
ENDBRANCH  27  28
ENDBRANCH  26  27
ENDBRANCH  23  24
ENDBRANCH  22  23
BRANCH  42  43
ATOM     43  C   UNL     1      -2.974   1.738   0.000  0.00  0.00    +0.190 C 
BRANCH  43  44
ATOM     44  O   UNL     1      -4.283   1.004   0.000  0.00  0.00    -0.392 OA
ATOM     45  H   UNL     1      -5.117   1.499   0.000  0.00  0.00    +0.210 HD
ENDBRANCH  43  44
ENDBRANCH  42  43
TORSDOF 19