REMARK  Name = NSC 250430
REMARK  9 active torsions:
REMARK  status: ('A' for Active; 'I' for Inactive)
REMARK    1  A    between atoms: C_2  and  O_3
REMARK    2  A    between atoms: O_3  and  C_4
REMARK    3  A    between atoms: C_13  and  O_14
REMARK    4  A    between atoms: C_15  and  C_16
REMARK    5  A    between atoms: C_16  and  C_17
REMARK    6  A    between atoms: C_18  and  C_19
REMARK    7  A    between atoms: C_18  and  C_20
REMARK    8  A    between atoms: C_29  and  C_30
REMARK    9  A    between atoms: C_29  and  C_31
REMARK                            x       y       z     vdW  Elec       q    Type
REMARK                         _______ _______ _______ _____ _____    ______ ____
ROOT
ATOM      1  C   UNL     1       6.899   2.151   0.000  0.00  0.00    +0.059 A 
ATOM      2  C   UNL     1       8.198   1.401   0.000  0.00  0.00    +0.141 A 
ATOM      5  C   UNL     1       9.497   2.151   0.000  0.00  0.00    +0.077 A 
ATOM      6  C   UNL     1      10.796   1.401   0.000  0.00  0.00    +0.221 C 
ATOM      7  C   UNL     1      12.095   2.151   0.000  0.00  0.00    +0.105 C 
ATOM      8  C   UNL     1      13.210   1.148   0.000  0.00  0.00    +0.005 A 
ATOM      9  C   UNL     1      14.702   1.304   0.000  0.00  0.00    +0.011 A 
ATOM     10  C   UNL     1      15.583   0.091   0.000  0.00  0.00    +0.046 A 
ATOM     11  C   UNL     1      14.973  -1.279   0.000  0.00  0.00    +0.124 A 
ATOM     14  C   UNL     1      13.482  -1.436   0.000  0.00  0.00    +0.040 A 
ATOM     20  C   UNL     1      12.600  -0.223   0.000  0.00  0.00    +0.132 A 
ATOM     21  C   UNL     1      12.095   3.651   0.000  0.00  0.00    +0.241 C 
ATOM     22  O   UNL     1      10.796   4.401   0.000  0.00  0.00    -0.491 OA
ATOM     23  O   UNL     1      11.108  -0.066   0.000  0.00  0.00    -0.483 OA
ATOM     24  C   UNL     1       9.497   3.651   0.000  0.00  0.00    +0.134 A 
ATOM     25  C   UNL     1       8.198   4.401   0.000  0.00  0.00    +0.092 A 
ATOM     26  C   UNL     1       5.600   1.401   0.000  0.00  0.00    +0.015 C 
ATOM     27  C   UNL     1       4.301   2.151   0.000  0.00  0.00    +0.020 C 
ATOM     28  C   UNL     1       4.301   3.651   0.000  0.00  0.00    +0.124 C 
ATOM     29  C   UNL     1       2.824   3.391   0.000  0.00  0.00    +0.060 C 
ATOM     30  C   UNL     1       3.788   5.061   0.000  0.00  0.00    +0.060 C 
ATOM     31  O   UNL     1       5.600   4.401   0.000  0.00  0.00    -0.481 OA
ATOM     32  C   UNL     1       6.899   3.651   0.000  0.00  0.00    +0.136 A 
ENDROOT
BRANCH   2   3
ATOM      3  O   UNL     1       8.198  -0.099   0.000  0.00  0.00    -0.494 OA
ATOM      4  C   UNL     1       9.497  -0.849   0.000  0.00  0.00    +0.277 C 
ENDBRANCH   2   3
BRANCH  11  12
ATOM     12  O   UNL     1      15.855  -2.493   0.000  0.00  0.00    -0.506 OA
ATOM     13  H   UNL     1      15.474  -3.349   0.000  0.00  0.00    +0.292 HD
ENDBRANCH  11  12
BRANCH  14  15
ATOM     15  C   UNL     1      12.871  -2.807   0.000  0.00  0.00    +0.069 C 
BRANCH  15  16
ATOM     16  C   UNL     1      11.380  -2.963   0.000  0.00  0.00    -0.023 C 
ATOM     17  C   UNL     1      10.770  -4.334   0.000  0.00  0.00    -0.079 C 
ATOM     18  C   UNL     1       9.278  -4.490   0.000  0.00  0.00    +0.038 C 
ATOM     19  C   UNL     1      11.651  -5.547   0.000  0.00  0.00    +0.038 C 
ENDBRANCH  15  16
ENDBRANCH  14  15
TORSDOF 4