REMARK  Name = NSC 106486
REMARK  5 active torsions:
REMARK  status: ('A' for Active; 'I' for Inactive)
REMARK    1  A    between atoms: C_5  and  C_6
REMARK    2  A    between atoms: C_7  and  O_8
REMARK    3  A    between atoms: C_9  and  O_10
REMARK    4  A    between atoms: C_11  and  C_12
REMARK    5  A    between atoms: C_12  and  O_13
REMARK                            x       y       z     vdW  Elec       q    Type
REMARK                         _______ _______ _______ _____ _____    ______ ____
ROOT
ATOM      1  N   UNL     1     -10.298   6.673   0.000  0.00  0.00    -0.198 NA
ATOM      2  C   UNL     1      -8.999   7.423   0.000  0.00  0.00    +0.298 A 
ATOM      3  C   UNL     1      -7.700   6.673   0.000  0.00  0.00    +0.149 A 
ATOM      4  C   UNL     1      -7.700   5.173   0.000  0.00  0.00    +0.097 A 
ATOM      5  C   UNL     1      -6.273   4.709   0.000  0.00  0.00    +0.118 A 
ATOM     18  N   UNL     1      -5.392   5.923   0.000  0.00  0.00    -0.173 NA
ATOM     19  N   UNL     1      -8.999   4.423   0.000  0.00  0.00    -0.343 N 
ATOM     20  H   UNL     1      -8.999   2.923   0.000  0.00  0.00    +0.167 HD
ATOM     21  N   UNL     1      -6.273   7.136   0.000  0.00  0.00    -0.270 N 
ATOM     22  H   UNL     1      -5.810   8.563   0.000  0.00  0.00    +0.189 HD
ATOM     23  O   UNL     1      -8.999   8.923   0.000  0.00  0.00    -0.263 OA
ATOM     24  C   UNL     1     -10.298   5.173   0.000  0.00  0.00    +0.201 A 
ENDROOT
BRANCH   5   6
ATOM      6  C   UNL     1      -5.810   3.283   0.000  0.00  0.00    +0.202 C 
ATOM      7  C   UNL     1      -6.691   2.069   0.000  0.00  0.00    +0.180 C 
ATOM     10  C   UNL     1      -5.810   0.856   0.000  0.00  0.00    +0.177 C 
ATOM     13  C   UNL     1      -4.383   1.319   0.000  0.00  0.00    +0.175 C 
ATOM     17  O   UNL     1      -4.383   2.819   0.000  0.00  0.00    -0.360 OA
BRANCH   7   8
ATOM      8  O   UNL     1      -8.191   2.069   0.000  0.00  0.00    -0.386 OA
ATOM      9  H   UNL     1      -8.676   2.909   0.000  0.00  0.00    +0.210 HD
ENDBRANCH   7   8
BRANCH  10  11
ATOM     11  O   UNL     1      -6.273  -0.571   0.000  0.00  0.00    -0.386 OA
ATOM     12  H   UNL     1      -7.222  -0.773   0.000  0.00  0.00    +0.210 HD
ENDBRANCH  10  11
BRANCH  13  14
ATOM     14  C   UNL     1      -3.170   0.437   0.000  0.00  0.00    +0.190 C 
BRANCH  14  15
ATOM     15  O   UNL     1      -3.326  -1.055   0.000  0.00  0.00    -0.392 OA
ATOM     16  H   UNL     1      -4.213  -1.449   0.000  0.00  0.00    +0.210 HD
ENDBRANCH  14  15
ENDBRANCH  13  14
ENDBRANCH   5   6
TORSDOF 5