REMARK  Name = NSC 785185#1
REMARK  8 active torsions:
REMARK  status: ('A' for Active; 'I' for Inactive)
REMARK    1  A    between atoms: C_1  and  C_2
REMARK    2  A    between atoms: C_1  and  C_17
REMARK    3  A    between atoms: C_8  and  O_9
REMARK    4  A    between atoms: O_9  and  C_10
REMARK    5  A    between atoms: C_11  and  O_12
REMARK    6  A    between atoms: O_12  and  C_13
REMARK    7  A    between atoms: C_13  and  C_14
REMARK    8  A    between atoms: C_20  and  O_21
REMARK                            x       y       z     vdW  Elec       q    Type
REMARK                         _______ _______ _______ _____ _____    ______ ____
ROOT
ATOM      2  C   UNL     1      -5.207  -8.372   0.000  0.00  0.00    +0.089 C 
ATOM      3  N   UNL     1      -3.908  -9.122   0.000  0.00  0.00    -0.309 NA
ATOM      4  H   UNL     1      -3.024  -8.612   0.000  0.00  0.00    +0.123 HD
ATOM      5  C   UNL     1      -3.908 -10.622   0.000  0.00  0.00    +0.086 C 
ATOM      6  C   UNL     1      -5.207 -11.372   0.000  0.00  0.00    +0.050 C 
ATOM      7  C   UNL     1      -6.506 -10.622   0.000  0.00  0.00    -0.038 A 
ATOM      8  C   UNL     1      -7.805 -11.372   0.000  0.00  0.00    +0.053 A 
ATOM      9  C   UNL     1      -9.104 -10.622   0.000  0.00  0.00    +0.162 A 
ATOM     12  C   UNL     1      -9.104  -9.122   0.000  0.00  0.00    +0.162 A 
ATOM     16  C   UNL     1      -7.805  -8.372   0.000  0.00  0.00    +0.055 A 
ATOM     17  C   UNL     1      -6.506  -9.122   0.000  0.00  0.00    -0.023 A 
ENDROOT
BRANCH   9  10
ATOM     10  O   UNL     1     -10.403 -11.372   0.000  0.00  0.00    -0.491 OA
ATOM     11  C   UNL     1     -11.702 -10.622   0.000  0.00  0.00    +0.277 C 
ENDBRANCH   9  10
BRANCH   2   1
ATOM      1  C   UNL     1      -5.207  -6.872   0.000  0.00  0.00    +0.058 C 
BRANCH   1  18
ATOM     18  C   UNL     1      -3.908  -6.122   0.000  0.00  0.00    -0.045 A 
ATOM     19  C   UNL     1      -2.608  -6.872   0.000  0.00  0.00    +0.007 A 
ATOM     20  C   UNL     1      -1.310  -6.122   0.000  0.00  0.00    +0.045 A 
ATOM     21  C   UNL     1      -1.310  -4.622   0.000  0.00  0.00    +0.117 A 
ATOM     24  C   UNL     1      -2.608  -3.872   0.000  0.00  0.00    +0.045 A 
ATOM     25  C   UNL     1      -3.908  -4.622   0.000  0.00  0.00    +0.007 A 
BRANCH  21  22
ATOM     22  O   UNL     1      -0.011  -3.872   0.000  0.00  0.00    -0.507 OA
ATOM     23  H   UNL     1       0.801  -4.341   0.000  0.00  0.00    +0.292 HD
ENDBRANCH  21  22
ENDBRANCH   1  18
ENDBRANCH   2   1
BRANCH  12  13
ATOM     13  O   UNL     1     -10.403  -8.372   0.000  0.00  0.00    -0.489 OA
BRANCH  13  14
ATOM     14  C   UNL     1     -10.403  -6.872   0.000  0.00  0.00    +0.226 C 
ATOM     15  C   UNL     1      -9.104  -6.122   0.000  0.00  0.00    +0.048 C 
ENDBRANCH  13  14
ENDBRANCH  12  13
TORSDOF 6