REMARK  Name = NSC 72862
REMARK  2 active torsions:
REMARK  status: ('A' for Active; 'I' for Inactive)
REMARK    1  A    between atoms: C_10  and  O_11
REMARK    2  A    between atoms: O_11  and  C_12
REMARK                            x       y       z     vdW  Elec       q    Type
REMARK                         _______ _______ _______ _____ _____    ______ ____
ROOT
ATOM      1  O   UNL     1       7.433   0.750   0.000  0.00  0.00    -0.275 OA
ATOM      2  C   UNL     1       8.234   2.018   0.000  0.00  0.00    +0.223 C 
ATOM      3  C   UNL     1       9.584   1.970   0.000  0.00  0.00    +0.128 C 
ATOM      4  C   UNL     1      10.292   3.203   0.000  0.00  0.00    +0.133 C 
ATOM      5  C   UNL     1       9.643   4.366   0.000  0.00  0.00    +0.047 C 
ATOM      6  C   UNL     1       8.252   4.435   0.000  0.00  0.00    +0.100 C 
ATOM      7  C   UNL     1       7.658   5.532   0.000  0.00  0.00    +0.034 C 
ATOM      8  C   UNL     1       6.099   5.246   0.000  0.00  0.00    -0.013 A 
ATOM      9  C   UNL     1       4.724   6.046   0.000  0.00  0.00    +0.051 A 
ATOM     10  C   UNL     1       3.348   5.246   0.000  0.00  0.00    +0.120 A 
ATOM     13  C   UNL     1       3.348   3.683   0.000  0.00  0.00    +0.047 A 
ATOM     14  C   UNL     1       4.724   2.880   0.000  0.00  0.00    +0.027 A 
ATOM     15  C   UNL     1       6.099   3.683   0.000  0.00  0.00    +0.041 A 
ATOM     16  C   UNL     1       8.337   6.761   0.000  0.00  0.00    +0.070 C 
ATOM     17  C   UNL     1       9.679   6.717   0.000  0.00  0.00    +0.028 C 
ATOM     18  N   UNL     1       7.456   7.817   0.000  0.00  0.00    -0.295 NA
ATOM     19  C   UNL     1       6.180   7.293   0.000  0.00  0.00    +0.086 C 
ATOM     20  C   UNL     1      10.343   8.188   0.000  0.00  0.00    +0.115 C 
ATOM     21  C   UNL     1      11.612   5.679   0.000  0.00  0.00    -0.054 C 
ATOM     22  C   UNL     1      12.548   4.927   0.000  0.00  0.00    +0.002 C 
ATOM     23  C   UNL     1      12.544   3.724   0.000  0.00  0.00    +0.187 C 
ATOM     24  C   UNL     1       6.301   5.870   0.000  0.00  0.00    +0.030 C 
ATOM     25  C   UNL     1      10.372   5.507   0.000  0.00  0.00    +0.025 C 
ATOM     26  O   UNL     1      11.557   2.931   0.000  0.00  0.00    -0.372 OA
ATOM     27  N   UNL     1       7.603   3.232   0.000  0.00  0.00    -0.267 N 
ENDROOT
BRANCH  10  11
ATOM     11  O   UNL     1       2.048   5.994   0.000  0.00  0.00    -0.495 OA
ATOM     12  C   UNL     1       0.750   5.242   0.000  0.00  0.00    +0.277 C 
ENDBRANCH  10  11
TORSDOF 1