REMARK  Name = NSC 44138
REMARK  9 active torsions:
REMARK  status: ('A' for Active; 'I' for Inactive)
REMARK    1  A    between atoms: C_2  and  O_3
REMARK    2  A    between atoms: O_3  and  P_4
REMARK    3  A    between atoms: P_4  and  O_5
REMARK    4  A    between atoms: P_4  and  O_6
REMARK    5  A    between atoms: C_8  and  O_9
REMARK    6  A    between atoms: C_10  and  O_11
REMARK    7  A    between atoms: C_12  and  O_13
REMARK    8  A    between atoms: C_14  and  C_15
REMARK    9  A    between atoms: C_15  and  O_16
REMARK                            x       y       z     vdW  Elec       q    Type
REMARK                         _______ _______ _______ _____ _____    ______ ____
ROOT
ATOM      1  O   UNL     1      -4.647  -1.299   0.000  0.00  0.00    -0.340 OA
ATOM      2  C   UNL     1      -5.946  -2.049   0.000  0.00  0.00    +0.293 C 
ATOM     10  C   UNL     1      -5.946  -3.549   0.000  0.00  0.00    +0.202 C 
ATOM     13  C   UNL     1      -4.647  -4.299   0.000  0.00  0.00    +0.179 C 
ATOM     16  C   UNL     1      -3.348  -3.549   0.000  0.00  0.00    +0.177 C 
ATOM     19  C   UNL     1      -3.348  -2.049   0.000  0.00  0.00    +0.178 C 
ENDROOT
BRANCH  10  11
ATOM     11  O   UNL     1      -7.245  -4.299   0.000  0.00  0.00    -0.384 OA
ATOM     12  H   UNL     1      -8.085  -3.814   0.000  0.00  0.00    +0.210 HD
ENDBRANCH  10  11
BRANCH  13  14
ATOM     14  O   UNL     1      -4.647  -5.799   0.000  0.00  0.00    -0.386 OA
ATOM     15  H   UNL     1      -5.487  -6.284   0.000  0.00  0.00    +0.210 HD
ENDBRANCH  13  14
BRANCH  16  17
ATOM     17  O   UNL     1      -2.049  -4.299   0.000  0.00  0.00    -0.386 OA
ATOM     18  H   UNL     1      -2.049  -5.269   0.000  0.00  0.00    +0.210 HD
ENDBRANCH  16  17
BRANCH   2   3
ATOM      3  O   UNL     1      -7.245  -1.299   0.000  0.00  0.00    -0.254 OA
BRANCH   3   4
ATOM      4  P   UNL     1      -8.544  -2.049   0.000  0.00  0.00    +0.475 P 
ATOM      9  O   UNL     1      -9.294  -0.750   0.000  0.00  0.00    -0.227 OA
BRANCH   4   5
ATOM      5  O   UNL     1      -7.794  -3.348   0.000  0.00  0.00    -0.303 OA
ATOM      6  H   UNL     1      -8.279  -4.188   0.000  0.00  0.00    +0.222 HD
ENDBRANCH   4   5
BRANCH   4   7
ATOM      7  O   UNL     1      -9.843  -2.799   0.000  0.00  0.00    -0.303 OA
ATOM      8  H   UNL     1     -10.683  -2.314   0.000  0.00  0.00    +0.222 HD
ENDBRANCH   4   7
ENDBRANCH   3   4
ENDBRANCH   2   3
BRANCH  19  20
ATOM     20  C   UNL     1      -2.049  -1.299   0.000  0.00  0.00    +0.190 C 
BRANCH  20  21
ATOM     21  O   UNL     1      -0.750  -2.049   0.000  0.00  0.00    -0.392 OA
ATOM     22  H   UNL     1      -0.750  -3.019   0.000  0.00  0.00    +0.210 HD
ENDBRANCH  20  21
ENDBRANCH  19  20
TORSDOF 9