REMARK  Name = NSC 301683
REMARK  6 active torsions:
REMARK  status: ('A' for Active; 'I' for Inactive)
REMARK    1  A    between atoms: C_1  and  O_16
REMARK    2  A    between atoms: C_11  and  O_12
REMARK    3  A    between atoms: O_12  and  C_13
REMARK    4  A    between atoms: C_13  and  C_14
REMARK    5  A    between atoms: O_16  and  C_17
REMARK    6  A    between atoms: C_17  and  C_18
REMARK                            x       y       z     vdW  Elec       q    Type
REMARK                         _______ _______ _______ _____ _____    ______ ____
ROOT
ATOM      1  C   UNL     1       5.946   3.750   0.000  0.00  0.00    +0.216 A 
ATOM      2  C   UNL     1       7.245   3.000   0.000  0.00  0.00    +0.185 A 
ATOM      3  C   UNL     1       7.245   1.500   0.000  0.00  0.00    +0.022 A 
ATOM      4  C   UNL     1       5.946   0.750   0.000  0.00  0.00    +0.015 A 
ATOM      5  C   UNL     1       4.647   1.500   0.000  0.00  0.00    +0.051 A 
ATOM      6  C   UNL     1       8.544   0.750   0.000  0.00  0.00    +0.018 A 
ATOM      7  C   UNL     1       9.843   1.500   0.000  0.00  0.00    +0.092 A 
ATOM      8  C   UNL     1       9.843   3.000   0.000  0.00  0.00    +0.337 A 
ATOM      9  O   UNL     1      11.142   3.750   0.000  0.00  0.00    -0.245 OA
ATOM     10  O   UNL     1       8.544   3.750   0.000  0.00  0.00    -0.418 OA
ATOM     11  C   UNL     1       4.647   3.000   0.000  0.00  0.00    +0.177 A 
ENDROOT
BRANCH  11  12
ATOM     12  O   UNL     1       3.348   3.750   0.000  0.00  0.00    -0.422 OA
BRANCH  12  13
ATOM     13  C   UNL     1       2.049   3.000   0.000  0.00  0.00    +0.309 C 
ATOM     14  C   UNL     1       2.049   1.500   0.000  0.00  0.00    +0.136 C 
ATOM     15  O   UNL     1       0.750   3.750   0.000  0.00  0.00    -0.251 OA
ENDBRANCH  12  13
ENDBRANCH  11  12
BRANCH   1  16
ATOM     16  O   UNL     1       5.946   5.250   0.000  0.00  0.00    -0.418 OA
BRANCH  16  17
ATOM     17  C   UNL     1       7.245   6.000   0.000  0.00  0.00    +0.309 C 
ATOM     18  C   UNL     1       8.544   5.250   0.000  0.00  0.00    +0.136 C 
ATOM     19  O   UNL     1       7.245   7.500   0.000  0.00  0.00    -0.251 OA
ENDBRANCH  16  17
ENDBRANCH   1  16
TORSDOF 4