REMARK  Name = NSC 18334
REMARK  22 active torsions:
REMARK  status: ('A' for Active; 'I' for Inactive)
REMARK    1  A    between atoms: C_5  and  O_6
REMARK    2  A    between atoms: O_6  and  C_7
REMARK    3  A    between atoms: C_8  and  O_9
REMARK    4  A    between atoms: C_11  and  O_12
REMARK    5  A    between atoms: O_12  and  C_13
REMARK    6  A    between atoms: C_14  and  N_15
REMARK    7  A    between atoms: N_15  and  C_16
REMARK    8  A    between atoms: N_15  and  C_17
REMARK    9  A    between atoms: C_19  and  O_20
REMARK   10  A    between atoms: O_20  and  C_21
REMARK   11  A    between atoms: C_23  and  C_24
REMARK   12  A    between atoms: C_23  and  O_26
REMARK   13  A    between atoms: C_24  and  C_25
REMARK   14  A    between atoms: C_27  and  C_28
REMARK   15  A    between atoms: C_28  and  O_29
REMARK   16  A    between atoms: O_29  and  C_30
REMARK   17  A    between atoms: C_38  and  O_39
REMARK   18  A    between atoms: C_42  and  O_43
REMARK   19  A    between atoms: C_46  and  O_47
REMARK   20  A    between atoms: C_52  and  C_53
REMARK   21  A    between atoms: C_55  and  C_56
REMARK   22  A    between atoms: C_58  and  C_59
REMARK                            x       y       z     vdW  Elec       q    Type
REMARK                         _______ _______ _______ _____ _____    ______ ____
ROOT
ATOM     22  C   UNL     1     -12.441  -6.000   0.000  0.00  0.00    +0.158 C 
ATOM     23  C   UNL     1     -13.740  -5.250   0.000  0.00  0.00    +0.072 C 
ATOM     24  C   UNL     1     -13.740  -3.750   0.000  0.00  0.00    +0.085 C 
ATOM     29  C   UNL     1     -12.441  -3.000   0.000  0.00  0.00    +0.160 C 
ATOM     34  C   UNL     1     -11.142  -3.750   0.000  0.00  0.00    -0.021 A 
ATOM     35  C   UNL     1      -9.843  -3.000   0.000  0.00  0.00    +0.017 A 
ATOM     36  C   UNL     1      -8.544  -3.750   0.000  0.00  0.00    +0.037 A 
ATOM     37  C   UNL     1      -8.544  -5.250   0.000  0.00  0.00    +0.075 A 
ATOM     38  C   UNL     1      -7.245  -6.000   0.000  0.00  0.00    +0.202 C 
ATOM     39  C   UNL     1      -5.946  -5.250   0.000  0.00  0.00    +0.078 A 
ATOM     40  C   UNL     1      -4.647  -6.000   0.000  0.00  0.00    +0.129 A 
ATOM     43  C   UNL     1      -3.348  -5.250   0.000  0.00  0.00    +0.050 A 
ATOM     44  C   UNL     1      -3.348  -3.750   0.000  0.00  0.00    +0.050 A 
ATOM     45  C   UNL     1      -4.647  -3.000   0.000  0.00  0.00    +0.129 A 
ATOM     48  C   UNL     1      -5.946  -3.750   0.000  0.00  0.00    +0.078 A 
ATOM     49  O   UNL     1      -7.245  -7.500   0.000  0.00  0.00    -0.286 OA
ATOM     50  C   UNL     1      -9.843  -6.000   0.000  0.00  0.00    +0.134 A 
ATOM     53  C   UNL     1      -7.245  -3.000   0.000  0.00  0.00    +0.198 C 
ATOM     54  O   UNL     1      -7.245  -1.500   0.000  0.00  0.00    -0.286 OA
ATOM     55  C   UNL     1     -11.142  -5.250   0.000  0.00  0.00    +0.028 A 
ENDROOT
BRANCH  24  25
ATOM     25  C   UNL     1     -14.253  -2.341   0.000  0.00  0.00    +0.032 C 
ATOM     26  C   UNL     1     -15.731  -2.080   0.000  0.00  0.00    +0.007 C 
ENDBRANCH  24  25
BRANCH  24  27
ATOM     27  O   UNL     1     -15.218  -4.011   0.000  0.00  0.00    -0.387 OA
ATOM     28  H   UNL     1     -15.841  -3.267   0.000  0.00  0.00    +0.210 HD
ENDBRANCH  24  27
BRANCH  29  30
ATOM     30  C   UNL     1     -12.441  -1.500   0.000  0.00  0.00    +0.317 C 
ATOM     33  O   UNL     1     -13.740  -0.750   0.000  0.00  0.00    -0.250 OA
BRANCH  30  31
ATOM     31  O   UNL     1     -11.142  -0.750   0.000  0.00  0.00    -0.467 OA
ATOM     32  C   UNL     1      -9.843  -1.500   0.000  0.00  0.00    +0.280 C 
ENDBRANCH  30  31
ENDBRANCH  29  30
BRANCH  40  41
ATOM     41  O   UNL     1      -4.647  -7.500   0.000  0.00  0.00    -0.506 OA
ATOM     42  H   UNL     1      -5.459  -7.968   0.000  0.00  0.00    +0.292 HD
ENDBRANCH  40  41
BRANCH  45  46
ATOM     46  O   UNL     1      -4.647  -1.500   0.000  0.00  0.00    -0.506 OA
ATOM     47  H   UNL     1      -3.836  -1.031   0.000  0.00  0.00    +0.292 HD
ENDBRANCH  45  46
BRANCH  50  51
ATOM     51  O   UNL     1      -9.843  -7.500   0.000  0.00  0.00    -0.506 OA
ATOM     52  H   UNL     1     -10.655  -7.969   0.000  0.00  0.00    +0.292 HD
ENDBRANCH  50  51
BRANCH  22  21
ATOM     21  O   UNL     1     -12.441  -7.500   0.000  0.00  0.00    -0.343 OA
BRANCH  21  20
ATOM     14  C   UNL     1     -16.339  -9.750   0.000  0.00  0.00    +0.167 C 
ATOM     15  C   UNL     1     -16.339  -8.250   0.000  0.00  0.00    +0.092 C 
ATOM     19  C   UNL     1     -15.039  -7.500   0.000  0.00  0.00    +0.083 C 
ATOM     20  C   UNL     1     -13.740  -8.250   0.000  0.00  0.00    +0.253 C 
ATOM     56  O   UNL     1     -13.740  -9.750   0.000  0.00  0.00    -0.346 OA
ATOM     57  C   UNL     1     -15.039 -10.500   0.000  0.00  0.00    +0.149 C 
ATOM     58  C   UNL     1     -15.039  -9.000   0.000  0.00  0.00    +0.041 C 
BRANCH  15  16
ATOM     16  N   UNL     1     -17.637  -7.500   0.000  0.00  0.00    -0.303 NA
ATOM     17  C   UNL     1     -17.637  -6.000   0.000  0.00  0.00    +0.105 C 
ATOM     18  C   UNL     1     -18.936  -8.250   0.000  0.00  0.00    +0.105 C 
ENDBRANCH  15  16
BRANCH  14  13
ATOM     13  O   UNL     1     -17.637 -10.500   0.000  0.00  0.00    -0.344 OA
BRANCH  13  12
ATOM      7  C   UNL     1     -17.637 -15.000   0.000  0.00  0.00    +0.178 C 
ATOM      8  C   UNL     1     -16.339 -14.250   0.000  0.00  0.00    +0.151 C 
ATOM     11  C   UNL     1     -16.339 -12.750   0.000  0.00  0.00    +0.095 C 
ATOM     12  C   UNL     1     -17.637 -12.000   0.000  0.00  0.00    +0.254 C 
ATOM     59  O   UNL     1     -18.937 -12.750   0.000  0.00  0.00    -0.346 OA
ATOM     60  C   UNL     1     -18.937 -14.250   0.000  0.00  0.00    +0.150 C 
ATOM     61  C   UNL     1     -17.637 -13.500   0.000  0.00  0.00    +0.041 C 
BRANCH   8   9
ATOM      9  O   UNL     1     -15.040 -15.000   0.000  0.00  0.00    -0.389 OA
ATOM     10  H   UNL     1     -15.040 -15.970   0.000  0.00  0.00    +0.210 HD
ENDBRANCH   8   9
BRANCH   7   6
ATOM      6  O   UNL     1     -17.637 -16.500   0.000  0.00  0.00    -0.343 OA
BRANCH   6   5
ATOM      1  O   UNL     1     -22.834 -19.500   0.000  0.00  0.00    -0.295 OA
ATOM      2  C   UNL     1     -21.535 -18.750   0.000  0.00  0.00    +0.162 C 
ATOM      3  C   UNL     1     -21.535 -17.250   0.000  0.00  0.00    +0.082 C 
ATOM      4  C   UNL     1     -20.236 -16.500   0.000  0.00  0.00    +0.069 C 
ATOM      5  C   UNL     1     -18.937 -17.250   0.000  0.00  0.00    +0.252 C 
ATOM     62  O   UNL     1     -18.937 -18.750   0.000  0.00  0.00    -0.341 OA
ATOM     63  C   UNL     1     -20.236 -19.500   0.000  0.00  0.00    +0.184 C 
ATOM     64  C   UNL     1     -20.236 -18.000   0.000  0.00  0.00    +0.046 C 
ENDBRANCH   6   5
ENDBRANCH   7   6
ENDBRANCH  13  12
ENDBRANCH  14  13
ENDBRANCH  21  20
ENDBRANCH  22  21
TORSDOF 15