REMARK  Name = NSC 6832
REMARK  3 active torsions:
REMARK  status: ('A' for Active; 'I' for Inactive)
REMARK    1  A    between atoms: C_4  and  C_5
REMARK    2  A    between atoms: C_7  and  C_8
REMARK    3  A    between atoms: C_7  and  C_9
REMARK                            x       y       z     vdW  Elec       q    Type
REMARK                         _______ _______ _______ _____ _____    ______ ____
ROOT
ATOM      1  O   UNL     1      -3.145   0.950   0.000  0.00  0.00    -0.292 OA
ATOM      2  C   UNL     1      -4.444   0.200   0.000  0.00  0.00    +0.160 C 
ATOM      3  C   UNL     1      -4.444  -1.300   0.000  0.00  0.00    +0.046 C 
ATOM      4  C   UNL     1      -5.743  -2.050   0.000  0.00  0.00    -0.066 C 
ATOM      5  C   UNL     1      -5.743  -3.550   0.000  0.00  0.00    +0.039 C 
ATOM      6  C   UNL     1      -7.042  -1.300   0.000  0.00  0.00    +0.022 C 
ATOM      7  C   UNL     1      -7.042   0.200   0.000  0.00  0.00    -0.019 C 
ATOM      8  C   UNL     1      -7.555   1.609   0.000  0.00  0.00    +0.012 C 
ATOM      9  C   UNL     1      -8.519  -0.061   0.000  0.00  0.00    +0.012 C 
ATOM     10  C   UNL     1      -5.743  -0.550   0.000  0.00  0.00    +0.020 C 
ATOM     11  C   UNL     1      -5.743   0.950   0.000  0.00  0.00    +0.066 C 
ENDROOT
TORSDOF 0