REMARK  Name = 93739
REMARK  5 active torsions:
REMARK  status: ('A' for Active; 'I' for Inactive)
REMARK    1  A    between atoms: C_1  and  C_9
REMARK    2  A    between atoms: C_1  and  C_15
REMARK    3  A    between atoms: C_11  and  N_24
REMARK    4  A    between atoms: C_16  and  C_21
REMARK    5  A    between atoms: C_18  and  N_20
REMARK                            x       y       z     vdW  Elec       q    Type
REMARK                         _______ _______ _______ _____ _____    ______ ____
ROOT
ATOM      1 CL   UNL     1      -0.750  -0.750   0.000  0.00  0.00    -0.145 Cl
ATOM      2  H   UNL     1       0.580  -0.750   0.000  0.00  0.00    +0.145 HD
ENDROOT
TORSDOF 0