REMARK  Name = 78365
REMARK  7 active torsions:
REMARK  status: ('A' for Active; 'I' for Inactive)
REMARK    1  A    between atoms: C_2  and  O_7
REMARK    2  A    between atoms: C_5  and  N_19
REMARK    3  A    between atoms: O_7  and  C_8
REMARK    4  A    between atoms: C_8  and  C_9
REMARK    5  A    between atoms: C_9  and  C_10
REMARK    6  A    between atoms: C_10  and  C_22
REMARK    7  A    between atoms: C_12  and  N_21
REMARK                            x       y       z     vdW  Elec       q    Type
REMARK                         _______ _______ _______ _____ _____    ______ ____
ROOT
ATOM      4  N   UNL     1      -8.544  -0.750   0.000  0.00  0.00    -0.243 N 
ATOM      5  H   UNL     1      -8.544   0.234   0.000  0.00  0.00    +0.265 HD
ATOM      6  C   UNL     1      -7.245  -1.500   0.000  0.00  0.00    +0.388 C 
ATOM      7  N   UNL     1      -5.946  -0.750   0.000  0.00  0.00    -0.243 N 
ATOM      8  H   UNL     1      -5.946   0.234   0.000  0.00  0.00    +0.265 HD
ATOM     16  N   UNL     1      -7.245  -3.000   0.000  0.00  0.00    -0.129 NA
ATOM     17  H   UNL     1      -8.098  -3.492   0.000  0.00  0.00    +0.306 HD
ENDROOT
BRANCH   7   9
ATOM      9  C   UNL     1      -4.647  -1.500   0.000  0.00  0.00    +0.100 A 
ATOM     10  C   UNL     1      -3.348  -0.750   0.000  0.00  0.00    +0.043 A 
ATOM     11  C   UNL     1      -2.049  -1.500   0.000  0.00  0.00    +0.023 A 
ATOM     12  C   UNL     1      -2.049  -3.000   0.000  0.00  0.00    +0.041 A 
ATOM     13 CL   UNL     1      -0.750  -3.750   0.000  0.00  0.00    -0.084 Cl
ATOM     14  C   UNL     1      -3.348  -3.750   0.000  0.00  0.00    +0.023 A 
ATOM     15  C   UNL     1      -4.647  -3.000   0.000  0.00  0.00    +0.043 A 
ENDBRANCH   7   9
BRANCH   4   3
ATOM      1  C   UNL     1     -12.441  -1.500   0.000  0.00  0.00    +0.049 A 
ATOM      2  C   UNL     1     -11.142  -0.750   0.000  0.00  0.00    +0.046 A 
ATOM      3  C   UNL     1      -9.843  -1.500   0.000  0.00  0.00    +0.100 A 
ATOM     18  C   UNL     1      -9.843  -3.000   0.000  0.00  0.00    +0.046 A 
ATOM     19  C   UNL     1     -11.142  -3.750   0.000  0.00  0.00    +0.049 A 
ATOM     20  C   UNL     1     -12.441  -3.000   0.000  0.00  0.00    +0.121 A 
BRANCH  20  21
ATOM     21  O   UNL     1     -13.740  -3.750   0.000  0.00  0.00    -0.492 OA
BRANCH  21  22
ATOM     22  C   UNL     1     -15.039  -3.000   0.000  0.00  0.00    +0.229 C 
BRANCH  22  23
ATOM     23  C   UNL     1     -16.339  -3.750   0.000  0.00  0.00    +0.041 C 
BRANCH  23  24
ATOM     24  C   UNL     1     -17.637  -3.000   0.000  0.00  0.00    -0.000 C 
ATOM     25  C   UNL     1     -18.936  -3.750   0.000  0.00  0.00    +0.004 C 
ENDBRANCH  23  24
ENDBRANCH  22  23
ENDBRANCH  21  22
ENDBRANCH  20  21
ENDBRANCH   4   3
TORSDOF 6