REMARK  Name = 89303
REMARK  1 active torsions:
REMARK  status: ('A' for Active; 'I' for Inactive)
REMARK    1  A    between atoms: C_5  and  O_9
REMARK                            x       y       z     vdW  Elec       q    Type
REMARK                         _______ _______ _______ _____ _____    ______ ____
ROOT
ATOM      1  O   UNL     1       4.399   4.939   0.000  0.00  0.00    -0.284 OA
ATOM      2  C   UNL     1       3.226   4.003   0.000  0.00  0.00    +0.220 A 
ATOM      3  C   UNL     1       3.560   2.541   0.000  0.00  0.00    +0.164 A 
ATOM      6  C   UNL     1       2.624   1.368   0.000  0.00  0.00    +0.049 A 
ATOM      7  C   UNL     1       1.125   1.368   0.000  0.00  0.00    +0.004 A 
ATOM      8  C   UNL     1       0.189   2.541   0.000  0.00  0.00    +0.000 A 
ATOM      9  C   UNL     1       0.523   4.003   0.000  0.00  0.00    +0.004 A 
ATOM     10  C   UNL     1       1.875   4.654   0.000  0.00  0.00    +0.054 A 
ENDROOT
BRANCH   3   4
ATOM      4  O   UNL     1       5.022   2.207   0.000  0.00  0.00    -0.503 OA
ATOM      5  H   UNL     1       5.298   1.312   0.000  0.00  0.00    +0.292 HD
ENDBRANCH   3   4
TORSDOF 1