REMARK  Name = 79456
REMARK  6 active torsions:
REMARK  status: ('A' for Active; 'I' for Inactive)
REMARK    1  A    between atoms: C_3  and  N_19
REMARK    2  A    between atoms: C_4  and  C_21
REMARK    3  A    between atoms: C_5  and  C_20
REMARK    4  A    between atoms: C_9  and  C_17
REMARK    5  A    between atoms: C_10  and  O_16
REMARK    6  A    between atoms: C_12  and  N_13
REMARK                            x       y       z     vdW  Elec       q    Type
REMARK                         _______ _______ _______ _____ _____    ______ ____
ROOT
ATOM      3  N   UNL     1       4.821   6.649   0.000  0.00  0.00    -0.281 N 
ATOM      4  H   UNL     1       4.821   5.665   0.000  0.00  0.00    +0.155 HD
ATOM      5  C   UNL     1       3.522   7.399   0.000  0.00  0.00    +0.252 C 
ATOM      6  O   UNL     1       3.522   8.899   0.000  0.00  0.00    -0.270 OA
ENDROOT
BRANCH   3   2
ATOM      1  C   UNL     1       6.120   8.900   0.000  0.00  0.00    +0.024 A 
ATOM      2  C   UNL     1       6.120   7.400   0.000  0.00  0.00    +0.037 A 
ATOM     18  C   UNL     1       7.419   6.650   0.000  0.00  0.00    -0.029 A 
ATOM     19  C   UNL     1       7.419   5.150   0.000  0.00  0.00    +0.045 C 
ATOM     20  C   UNL     1       8.718   7.400   0.000  0.00  0.00    +0.008 A 
ATOM     21  C   UNL     1       8.718   8.900   0.000  0.00  0.00    -0.050 A 
ATOM     22  C   UNL     1      10.017   9.650   0.000  0.00  0.00    +0.044 C 
ATOM     23  C   UNL     1       7.419   9.650   0.000  0.00  0.00    +0.005 A 
ENDBRANCH   3   2
BRANCH   5   7
ATOM      7  C   UNL     1       2.223   6.649   0.000  0.00  0.00    +0.085 A 
ATOM      8  C   UNL     1       2.223   5.149   0.000  0.00  0.00    +0.207 A 
ATOM     11  C   UNL     1       0.924   4.399   0.000  0.00  0.00    +0.315 A 
ATOM     15  C   UNL     1      -0.375   5.149   0.000  0.00  0.00    +0.088 A 
ATOM     16  C   UNL     1      -0.375   6.649   0.000  0.00  0.00    +0.008 A 
ATOM     17  C   UNL     1       0.924   7.399   0.000  0.00  0.00    +0.017 A 
BRANCH  11  12
ATOM     12  N   UNL     1       0.924   2.900   0.000  0.00  0.00    +0.083 N 
ATOM     13  O   UNL     1       2.223   2.150   0.000  0.00  0.00    +0.042 OA
ATOM     14  O   UNL     1      -0.375   2.150   0.000  0.00  0.00    -0.576 OA
ENDBRANCH  11  12
BRANCH   8   9
ATOM      9  O   UNL     1       3.522   4.399   0.000  0.00  0.00    -0.501 OA
ATOM     10  H   UNL     1       3.522   3.463   0.000  0.00  0.00    +0.292 HD
ENDBRANCH   8   9
ENDBRANCH   5   7
TORSDOF 4