REMARK  Name = 7364
REMARK  3 active torsions:
REMARK  status: ('A' for Active; 'I' for Inactive)
REMARK    1  A    between atoms: C_3  and  N_16
REMARK    2  A    between atoms: C_5  and  C_6
REMARK    3  A    between atoms: C_10  and  C_17
REMARK                            x       y       z     vdW  Elec       q    Type
REMARK                         _______ _______ _______ _____ _____    ______ ____
ROOT
ATOM      6  C   UNL     1      -6.750  -3.348   0.000  0.00  0.00    +0.043 A 
ATOM      7  C   UNL     1      -7.500  -4.647   0.000  0.00  0.00    +0.053 A 
ATOM      8  C   UNL     1      -6.750  -5.946   0.000  0.00  0.00    +0.066 C 
ATOM      9  N   UNL     1      -9.000  -4.647   0.000  0.00  0.00    -0.219 NA
ATOM     10  C   UNL     1      -9.750  -3.348   0.000  0.00  0.00    +0.214 A 
ATOM     11  N   UNL     1     -11.250  -3.348   0.000  0.00  0.00    -0.327 N 
ATOM     12  H   UNL     1     -11.742  -4.201   0.000  0.00  0.00    +0.145 HD
ATOM     13  H   UNL     1     -11.742  -2.495   0.000  0.00  0.00    +0.145 HD
ATOM     14  N   UNL     1      -9.000  -2.049   0.000  0.00  0.00    -0.199 NA
ATOM     15  C   UNL     1      -7.500  -2.049   0.000  0.00  0.00    +0.129 A 
ENDROOT
BRANCH   6   5
ATOM      1  C   UNL     1      -3.000  -2.049   0.000  0.00  0.00    +0.022 A 
ATOM      2  C   UNL     1      -2.250  -3.348   0.000  0.00  0.00    +0.059 A 
ATOM      3  C   UNL     1      -3.000  -4.647   0.000  0.00  0.00    +0.060 A 
ATOM      4  C   UNL     1      -4.500  -4.647   0.000  0.00  0.00    +0.030 A 
ATOM      5  C   UNL     1      -5.250  -3.348   0.000  0.00  0.00    -0.011 A 
ATOM     19 CL   UNL     1      -2.250  -5.946   0.000  0.00  0.00    -0.082 Cl
ATOM     20 CL   UNL     1      -0.750  -3.348   0.000  0.00  0.00    -0.082 Cl
ATOM     21  C   UNL     1      -4.500  -2.049   0.000  0.00  0.00    +0.010 A 
ENDBRANCH   6   5
BRANCH  15  16
ATOM     16  N   UNL     1      -6.750  -0.750   0.000  0.00  0.00    -0.343 N 
ATOM     17  H   UNL     1      -7.242   0.103   0.000  0.00  0.00    +0.144 HD
ATOM     18  H   UNL     1      -5.766  -0.750   0.000  0.00  0.00    +0.144 HD
ENDBRANCH  15  16
TORSDOF 2