REMARK  Name = 755
REMARK  0 active torsions:
REMARK  status: ('A' for Active; 'I' for Inactive)
REMARK                            x       y       z     vdW  Elec       q    Type
REMARK                         _______ _______ _______ _____ _____    ______ ____
ROOT
ATOM      1  N   UNL     1      -0.229  -4.686   0.000  0.00  0.00    -0.228 NA
ATOM      2  C   UNL     1       0.774  -3.571   0.000  0.00  0.00    +0.136 A 
ATOM      3  C   UNL     1       2.242  -3.883   0.000  0.00  0.00    +0.116 A 
ATOM      4  C   UNL     1       2.705  -5.309   0.000  0.00  0.00    +0.160 A 
ATOM      5  N   UNL     1       4.205  -5.309   0.000  0.00  0.00    -0.218 NA
ATOM      6  C   UNL     1       4.669  -3.883   0.000  0.00  0.00    +0.199 A 
ATOM      7  N   UNL     1       1.702  -6.424   0.000  0.00  0.00    -0.329 N 
ATOM      8  H   UNL     1       2.165  -7.851   0.000  0.00  0.00    +0.168 HD
ATOM      9  N   UNL     1       3.455  -3.001   0.000  0.00  0.00    -0.341 N 
ATOM     10  H   UNL     1       3.455  -1.501   0.000  0.00  0.00    +0.167 HD
ATOM     11  S   UNL     1       0.311  -2.144   0.000  0.00  0.00    -0.028 S 
ATOM     12  C   UNL     1       0.234  -6.112   0.000  0.00  0.00    +0.199 A 
ENDROOT
TORSDOF 0