REMARK  Name = 80087
REMARK  4 active torsions:
REMARK  status: ('A' for Active; 'I' for Inactive)
REMARK    1  A    between atoms: C_1  and  N_16
REMARK    2  A    between atoms: C_6  and  C_19
REMARK    3  A    between atoms: N_16  and  C_17
REMARK    4  A    between atoms: N_16  and  C_18
REMARK                            x       y       z     vdW  Elec       q    Type
REMARK                         _______ _______ _______ _____ _____    ______ ____
ROOT
ATOM      8  C   UNL     1       3.630  -6.781   0.000  0.00  0.00    +0.016 C 
ATOM      9  C   UNL     1       4.929  -7.531   0.000  0.00  0.00    -0.017 C 
ATOM     10  C   UNL     1       5.086  -9.023   0.000  0.00  0.00    -0.011 A 
ATOM     11  C   UNL     1       4.082 -10.138   0.000  0.00  0.00    +0.009 A 
ATOM     12  C   UNL     1       4.546 -11.564   0.000  0.00  0.00    +0.001 A 
ATOM     13  C   UNL     1       6.013 -11.876   0.000  0.00  0.00    +0.001 A 
ATOM     14  C   UNL     1       7.017 -10.761   0.000  0.00  0.00    +0.008 A 
ATOM     15  C   UNL     1       6.553  -9.335   0.000  0.00  0.00    -0.017 A 
ATOM     16  C   UNL     1       7.303  -8.036   0.000  0.00  0.00    +0.009 C 
ATOM     17  C   UNL     1       6.300  -6.921   0.000  0.00  0.00    +0.009 C 
ENDROOT
BRANCH   8   7
ATOM      1  C   UNL     1       3.630  -2.281   0.000  0.00  0.00    +0.029 A 
ATOM      5  C   UNL     1       2.331  -3.031   0.000  0.00  0.00    +0.023 A 
ATOM      6  C   UNL     1       2.331  -4.531   0.000  0.00  0.00    +0.010 A 
ATOM      7  C   UNL     1       3.630  -5.281   0.000  0.00  0.00    -0.024 A 
ATOM     18  C   UNL     1       4.929  -4.531   0.000  0.00  0.00    +0.010 A 
ATOM     19  C   UNL     1       4.929  -3.031   0.000  0.00  0.00    +0.023 A 
BRANCH   1   2
ATOM      2  N   UNL     1       3.630  -0.781   0.000  0.00  0.00    -0.336 N 
ATOM      3  C   UNL     1       4.929  -0.031   0.000  0.00  0.00    +0.129 C 
ATOM      4  C   UNL     1       2.331  -0.031   0.000  0.00  0.00    +0.129 C 
ENDBRANCH   1   2
ENDBRANCH   8   7
TORSDOF 2