REMARK  Name = 7521
REMARK  10 active torsions:
REMARK  status: ('A' for Active; 'I' for Inactive)
REMARK    1  A    between atoms: O_2  and  C_25
REMARK    2  A    between atoms: O_2  and  C_28
REMARK    3  A    between atoms: C_11  and  C_13
REMARK    4  A    between atoms: C_14  and  C_39
REMARK    5  A    between atoms: C_17  and  O_38
REMARK    6  A    between atoms: C_20  and  C_37
REMARK    7  A    between atoms: C_29  and  O_36
REMARK    8  A    between atoms: C_30  and  O_34
REMARK    9  A    between atoms: C_31  and  C_35
REMARK   10  A    between atoms: C_32  and  O_33
REMARK                            x       y       z     vdW  Elec       q    Type
REMARK                         _______ _______ _______ _____ _____    ______ ____
ROOT
ATOM     15  C   UNL     1      -2.330   9.711   0.000  0.00  0.00    +0.144 C 
ATOM     16  C   UNL     1      -1.031   8.961   0.000  0.00  0.00    +0.004 C 
ATOM     17  C   UNL     1       0.268   9.711   0.000  0.00  0.00    -0.065 C 
ATOM     18  C   UNL     1       1.567   8.961   0.000  0.00  0.00    +0.031 C 
ATOM     19  C   UNL     1       2.866   9.711   0.000  0.00  0.00    +0.011 C 
ATOM     20  C   UNL     1       2.866  11.211   0.000  0.00  0.00    +0.025 C 
ATOM     21  C   UNL     1       1.567  11.961   0.000  0.00  0.00    +0.005 C 
ATOM     22  C   UNL     1       1.567  13.461   0.000  0.00  0.00    +0.005 C 
ATOM     23  C   UNL     1       2.866  14.211   0.000  0.00  0.00    +0.010 C 
ATOM     24  C   UNL     1       4.165  13.461   0.000  0.00  0.00    +0.004 C 
ATOM     25  C   UNL     1       4.060  14.958   0.000  0.00  0.00    +0.014 C 
ATOM     26  C   UNL     1       5.591  13.925   0.000  0.00  0.00    +0.031 C 
ATOM     27  C   UNL     1       6.473  12.711   0.000  0.00  0.00    +0.012 C 
ATOM     28  C   UNL     1       5.591  11.498   0.000  0.00  0.00    +0.036 C 
ATOM     36  C   UNL     1       4.165  11.961   0.000  0.00  0.00    +0.075 C 
ATOM     39  C   UNL     1       0.268  11.211   0.000  0.00  0.00    -0.008 C 
ATOM     40  C   UNL     1       0.268  12.711   0.000  0.00  0.00    +0.016 C 
ATOM     41  C   UNL     1      -1.031  11.961   0.000  0.00  0.00    +0.014 C 
ATOM     42  C   UNL     1      -2.330  11.211   0.000  0.00  0.00    +0.037 C 
ENDROOT
BRANCH  26  29
ATOM     29  C   UNL     1       4.585  16.186   0.000  0.00  0.00    -0.009 A 
ATOM     30  C   UNL     1       3.093  16.343   0.000  0.00  0.00    +0.203 A 
ATOM     31  O   UNL     1       2.483  17.713   0.000  0.00  0.00    -0.430 OA
ATOM     32  C   UNL     1       3.364  18.927   0.000  0.00  0.00    +0.337 A 
ATOM     33  C   UNL     1       4.856  18.770   0.000  0.00  0.00    +0.092 A 
ATOM     34  O   UNL     1       2.754  20.297   0.000  0.00  0.00    -0.245 OA
ATOM     35  C   UNL     1       5.466  17.400   0.000  0.00  0.00    +0.014 A 
ENDBRANCH  26  29
BRANCH  36  37
ATOM     37  O   UNL     1       4.322  10.470   0.000  0.00  0.00    -0.388 OA
ATOM     38  H   UNL     1       3.537   9.900   0.000  0.00  0.00    +0.210 HD
ENDBRANCH  36  37
BRANCH  15  14
ATOM     14  O   UNL     1      -3.630   8.961   0.000  0.00  0.00    -0.341 OA
BRANCH  14  13
ATOM      1  O   UNL     1      -4.929   6.712   0.000  0.00  0.00    -0.343 OA
ATOM      2  C   UNL     1      -4.929   5.212   0.000  0.00  0.00    +0.149 C 
ATOM      3  C   UNL     1      -3.630   5.962   0.000  0.00  0.00    +0.041 C 
ATOM      4  C   UNL     1      -3.630   4.462   0.000  0.00  0.00    +0.174 C 
ATOM      7  C   UNL     1      -2.330   5.212   0.000  0.00  0.00    +0.179 C 
ATOM     10  C   UNL     1      -2.330   6.712   0.000  0.00  0.00    +0.201 C 
ATOM     13  C   UNL     1      -3.630   7.462   0.000  0.00  0.00    +0.282 C 
BRANCH   4   5
ATOM      5  O   UNL     1      -3.630   2.962   0.000  0.00  0.00    -0.387 OA
ATOM      6  H   UNL     1      -4.470   2.477   0.000  0.00  0.00    +0.210 HD
ENDBRANCH   4   5
BRANCH   7   8
ATOM      8  O   UNL     1      -1.031   4.462   0.000  0.00  0.00    -0.386 OA
ATOM      9  H   UNL     1      -1.031   3.492   0.000  0.00  0.00    +0.210 HD
ENDBRANCH   7   8
BRANCH  10  11
ATOM     11  O   UNL     1      -1.031   7.462   0.000  0.00  0.00    -0.384 OA
ATOM     12  H   UNL     1      -0.191   6.976   0.000  0.00  0.00    +0.210 HD
ENDBRANCH  10  11
ENDBRANCH  14  13
ENDBRANCH  15  14
TORSDOF 7