REMARK  Name = 82025
REMARK  6 active torsions:
REMARK  status: ('A' for Active; 'I' for Inactive)
REMARK    1  A    between atoms: C_2  and  C_18
REMARK    2  A    between atoms: C_5  and  O_20
REMARK    3  A    between atoms: C_6  and  N_21
REMARK    4  A    between atoms: C_9  and  N_17
REMARK    5  A    between atoms: C_10  and  N_14
REMARK    6  A    between atoms: C_11  and  C_13
REMARK                            x       y       z     vdW  Elec       q    Type
REMARK                         _______ _______ _______ _____ _____    ______ ____
ROOT
ATOM      3  C   UNL     1      -6.870   1.601   0.000  0.00  0.00    +0.252 C 
ATOM      4  O   UNL     1      -6.870   3.100   0.000  0.00  0.00    -0.270 OA
ATOM      5  N   UNL     1      -8.169   0.851   0.000  0.00  0.00    -0.276 N 
ATOM      6  H   UNL     1      -8.169  -0.134   0.000  0.00  0.00    +0.155 HD
ENDROOT
BRANCH   5   7
ATOM      7  C   UNL     1      -9.468   1.601   0.000  0.00  0.00    +0.112 A 
ATOM      8  C   UNL     1     -10.767   0.851   0.000  0.00  0.00    +0.294 A 
ATOM     12  C   UNL     1     -12.066   1.601   0.000  0.00  0.00    +0.089 A 
ATOM     13  C   UNL     1     -12.066   3.100   0.000  0.00  0.00    -0.044 A 
ATOM     14  C   UNL     1     -13.365   3.850   0.000  0.00  0.00    +0.044 C 
ATOM     15  C   UNL     1     -10.767   3.850   0.000  0.00  0.00    +0.005 A 
ATOM     16  C   UNL     1      -9.468   3.100   0.000  0.00  0.00    +0.030 A 
BRANCH   8   9
ATOM      9  N   UNL     1     -10.767  -0.649   0.000  0.00  0.00    +0.082 N 
ATOM     10  O   UNL     1     -12.066  -1.400   0.000  0.00  0.00    +0.042 OA
ATOM     11  O   UNL     1      -9.468  -1.400   0.000  0.00  0.00    -0.576 OA
ENDBRANCH   8   9
ENDBRANCH   5   7
BRANCH   3   2
ATOM      1  C   UNL     1      -4.272   1.601   0.000  0.00  0.00    +0.017 A 
ATOM      2  C   UNL     1      -5.571   0.851   0.000  0.00  0.00    +0.085 A 
ATOM     17  C   UNL     1      -5.571  -0.649   0.000  0.00  0.00    +0.207 A 
ATOM     20  C   UNL     1      -4.272  -1.400   0.000  0.00  0.00    +0.315 A 
ATOM     24  C   UNL     1      -2.973  -0.649   0.000  0.00  0.00    +0.088 A 
ATOM     25  C   UNL     1      -2.973   0.851   0.000  0.00  0.00    +0.008 A 
BRANCH  20  21
ATOM     21  N   UNL     1      -4.272  -2.900   0.000  0.00  0.00    +0.083 N 
ATOM     22  O   UNL     1      -2.973  -3.650   0.000  0.00  0.00    +0.042 OA
ATOM     23  O   UNL     1      -5.571  -3.650   0.000  0.00  0.00    -0.576 OA
ENDBRANCH  20  21
BRANCH  17  18
ATOM     18  O   UNL     1      -6.870  -1.400   0.000  0.00  0.00    -0.501 OA
ATOM     19  H   UNL     1      -7.682  -0.931   0.000  0.00  0.00    +0.292 HD
ENDBRANCH  17  18
ENDBRANCH   3   2
TORSDOF 5