REMARK  Name = 77021
REMARK  7 active torsions:
REMARK  status: ('A' for Active; 'I' for Inactive)
REMARK    1  A    between atoms: C_6  and  C_26
REMARK    2  A    between atoms: C_6  and  O_30
REMARK    3  A    between atoms: C_8  and  C_25
REMARK    4  A    between atoms: C_10  and  O_23
REMARK    5  A    between atoms: C_15  and  C_24
REMARK    6  A    between atoms: C_26  and  C_28
REMARK    7  A    between atoms: C_28  and  O_29
REMARK                            x       y       z     vdW  Elec       q    Type
REMARK                         _______ _______ _______ _____ _____    ______ ____
ROOT
ATOM      1  O   UNL     1      -6.116  -3.319   0.000  0.00  0.00    -0.288 OA
ATOM      2  C   UNL     1      -4.827  -2.551   0.000  0.00  0.00    +0.179 C 
ATOM      3  C   UNL     1      -3.518  -3.282   0.000  0.00  0.00    +0.054 C 
ATOM      4  C   UNL     1      -2.229  -2.514   0.000  0.00  0.00    -0.020 C 
ATOM      5  C   UNL     1      -0.920  -3.246   0.000  0.00  0.00    +0.194 C 
ATOM      6  C   UNL     1       0.368  -2.478   0.000  0.00  0.00    +0.048 C 
ATOM      7  C   UNL     1       0.347  -0.978   0.000  0.00  0.00    +0.037 C 
ATOM      8  C   UNL     1      -0.962  -0.246   0.000  0.00  0.00    +0.153 C 
ATOM      9  C   UNL     1      -0.983   1.254   0.000  0.00  0.00    +0.154 C 
ATOM     12  C   UNL     1       0.305   2.022   0.000  0.00  0.00    +0.044 C 
ATOM     13  C   UNL     1       1.615   1.290   0.000  0.00  0.00    +0.009 C 
ATOM     14  C   UNL     1       1.750   2.784   0.000  0.00  0.00    +0.015 C 
ATOM     15  C   UNL     1       3.035   1.774   0.000  0.00  0.00    +0.131 C 
ATOM     23  C   UNL     1       3.933   0.573   0.000  0.00  0.00    +0.043 C 
ATOM     24  C   UNL     1       3.069  -0.653   0.000  0.00  0.00    +0.008 C 
ATOM     25  F   UNL     1      -0.941  -1.746   0.000  0.00  0.00    -0.238 F 
ATOM     26  C   UNL     1       1.636  -0.210   0.000  0.00  0.00    +0.005 C 
ATOM     27  F   UNL     1      -0.899  -4.746   0.000  0.00  0.00    -0.241 F 
ATOM     28  C   UNL     1      -2.251  -1.014   0.000  0.00  0.00    +0.047 C 
ATOM     29  C   UNL     1      -2.272   0.485   0.000  0.00  0.00    +0.023 C 
ATOM     30  C   UNL     1      -3.560  -0.283   0.000  0.00  0.00    -0.009 C 
ATOM     31  C   UNL     1      -4.848  -1.051   0.000  0.00  0.00    +0.047 C 
ENDROOT
BRANCH   9  10
ATOM     10  O   UNL     1      -2.293   1.985   0.000  0.00  0.00    -0.389 OA
ATOM     11  H   UNL     1      -2.306   2.955   0.000  0.00  0.00    +0.210 HD
ENDBRANCH   9  10
BRANCH  15  16
ATOM     16  O   UNL     1       4.323   2.542   0.000  0.00  0.00    -0.380 OA
ATOM     17  H   UNL     1       5.170   2.069   0.000  0.00  0.00    +0.211 HD
ENDBRANCH  15  16
BRANCH  15  18
ATOM     18  C   UNL     1       2.909   3.268   0.000  0.00  0.00    +0.190 C 
ATOM     22  O   UNL     1       1.552   3.907   0.000  0.00  0.00    -0.292 OA
BRANCH  18  19
ATOM     19  C   UNL     1       4.141   4.125   0.000  0.00  0.00    +0.233 C 
BRANCH  19  20
ATOM     20  O   UNL     1       5.498   3.486   0.000  0.00  0.00    -0.387 OA
ATOM     21  H   UNL     1       5.579   2.519   0.000  0.00  0.00    +0.210 HD
ENDBRANCH  19  20
ENDBRANCH  18  19
ENDBRANCH  15  18
TORSDOF 5