REMARK  Name = 83265
REMARK  9 active torsions:
REMARK  status: ('A' for Active; 'I' for Inactive)
REMARK    1  A    between atoms: C_1  and  S_2
REMARK    2  A    between atoms: C_1  and  C_5
REMARK    3  A    between atoms: C_1  and  C_11
REMARK    4  A    between atoms: C_1  and  C_17
REMARK    5  A    between atoms: S_2  and  C_3
REMARK    6  A    between atoms: C_3  and  C_4
REMARK    7  A    between atoms: C_4  and  N_23
REMARK    8  A    between atoms: C_4  and  C_24
REMARK    9  A    between atoms: C_24  and  O_25
REMARK                            x       y       z     vdW  Elec       q    Type
REMARK                         _______ _______ _______ _____ _____    ______ ____
ROOT
ATOM      1  C   UNK     1       1.701   6.348   0.000  0.00  0.00    +0.091 C 
ENDROOT
BRANCH   1   2
ATOM      2  C   UNK     1       1.701   4.848   0.000  0.00  0.00    -0.023 A 
ATOM      3  C   UNK     1       3.000   4.098   0.000  0.00  0.00    +0.005 A 
ATOM      4  C   UNK     1       3.000   2.598   0.000  0.00  0.00    +0.000 A 
ATOM      5  C   UNK     1       1.701   1.848   0.000  0.00  0.00    +0.000 A 
ATOM      6  C   UNK     1       0.402   2.598   0.000  0.00  0.00    +0.000 A 
ATOM      7  C   UNK     1       0.402   4.098   0.000  0.00  0.00    +0.005 A 
ENDBRANCH   1   2
BRANCH   1   8
ATOM      8  C   UNK     1       0.201   6.348   0.000  0.00  0.00    -0.023 A 
ATOM      9  C   UNK     1      -0.549   5.049   0.000  0.00  0.00    +0.005 A 
ATOM     10  C   UNK     1      -2.049   5.049   0.000  0.00  0.00    +0.000 A 
ATOM     11  C   UNK     1      -2.799   6.348   0.000  0.00  0.00    +0.000 A 
ATOM     12  C   UNK     1      -2.049   7.647   0.000  0.00  0.00    +0.000 A 
ATOM     13  C   UNK     1      -0.549   7.647   0.000  0.00  0.00    +0.005 A 
ENDBRANCH   1   8
BRANCH   1  14
ATOM     14  C   UNK     1       1.701   7.848   0.000  0.00  0.00    -0.023 A 
ATOM     15  C   UNK     1       0.402   8.598   0.000  0.00  0.00    +0.005 A 
ATOM     16  C   UNK     1       0.402  10.098   0.000  0.00  0.00    +0.000 A 
ATOM     17  C   UNK     1       1.701  10.848   0.000  0.00  0.00    +0.000 A 
ATOM     18  C   UNK     1       3.000  10.098   0.000  0.00  0.00    +0.000 A 
ATOM     19  C   UNK     1       3.000   8.598   0.000  0.00  0.00    +0.005 A 
ENDBRANCH   1  14
BRANCH   1  20
ATOM     20  S   UNK     1       3.201   6.348   0.000  0.00  0.00    -0.138 S 
BRANCH  20  21
ATOM     21  C   UNK     1       3.951   7.647   0.000  0.00  0.00    +0.100 C 
BRANCH  21  22
ATOM     22  C   UNK     1       5.451   7.647   0.000  0.00  0.00    +0.171 C 
BRANCH  22  27
ATOM     27  N   UNK     1       6.201   6.348   0.000  0.00  0.00    -0.318 NA
ATOM     28  H   UNK     1       7.221   6.348   0.000  0.00  0.00    +0.119 HD
ATOM     29  H   UNK     1       5.691   5.465   0.000  0.00  0.00    +0.119 HD
ENDBRANCH  22  27
BRANCH  22  23
ATOM     23  C   UNK     1       6.201   8.946   0.000  0.00  0.00    +0.323 C 
ATOM     24  O   UNK     1       5.451  10.245   0.000  0.00  0.00    -0.249 OA
BRANCH  23  25
ATOM     25  O   UNK     1       7.701   8.946   0.000  0.00  0.00    -0.480 OA
ATOM     26  H   UNK     1       8.169   8.135   0.000  0.00  0.00    +0.295 HD
ENDBRANCH  23  25
ENDBRANCH  22  23
ENDBRANCH  21  22
ENDBRANCH  20  21
ENDBRANCH   1  20
TORSDOF 9