REMARK  Name = 749
REMARK  0 active torsions:
REMARK  status: ('A' for Active; 'I' for Inactive)
REMARK                            x       y       z     vdW  Elec       q    Type
REMARK                         _______ _______ _______ _____ _____    ______ ____
ROOT
ATOM      1  N   UNL     1      -2.212  -5.519   0.000  0.00  0.00    -0.176 NA
ATOM      2  C   UNL     1      -1.209  -4.404   0.000  0.00  0.00    +0.302 A 
ATOM      3  C   UNL     1       0.259  -4.716   0.000  0.00  0.00    +0.169 A 
ATOM      4  C   UNL     1       0.722  -6.143   0.000  0.00  0.00    +0.188 A 
ATOM      5  N   UNL     1       2.222  -6.143   0.000  0.00  0.00    -0.111 NA
ATOM      6  N   UNL     1       2.686  -4.716   0.000  0.00  0.00    -0.066 NA
ATOM      7  N   UNL     1      -0.282  -7.258   0.000  0.00  0.00    -0.309 N 
ATOM      8  H   UNL     1       0.182  -8.684   0.000  0.00  0.00    +0.170 HD
ATOM      9  N   UNL     1       1.472  -3.835   0.000  0.00  0.00    -0.251 N 
ATOM     10  H   UNL     1       1.472  -2.335   0.000  0.00  0.00    +0.191 HD
ATOM     11  O   UNL     1      -1.672  -2.978   0.000  0.00  0.00    -0.263 OA
ATOM     12  C   UNL     1      -1.749  -6.946   0.000  0.00  0.00    +0.195 A 
ATOM     13  N   UNL     1      -2.752  -8.061   0.000  0.00  0.00    -0.329 N 
ATOM     14  H   UNL     1      -2.448  -8.997   0.000  0.00  0.00    +0.145 HD
ATOM     15  H   UNL     1      -3.715  -7.856   0.000  0.00  0.00    +0.145 HD
ENDROOT
TORSDOF 0