REMARK  Name = 82116
REMARK  12 active torsions:
REMARK  status: ('A' for Active; 'I' for Inactive)
REMARK    1  A    between atoms: N_1  and  N_6
REMARK    2  A    between atoms: N_2  and  N_13
REMARK    3  A    between atoms: N_3  and  C_4
REMARK    4  A    between atoms: C_4  and  N_6
REMARK    5  A    between atoms: C_7  and  C_8
REMARK    6  A    between atoms: C_8  and  C_9
REMARK    7  A    between atoms: C_9  and  O_10
REMARK    8  A    between atoms: C_9  and  C_16
REMARK    9  A    between atoms: O_10  and  C_11
REMARK   10  A    between atoms: C_11  and  C_12
REMARK   11  A    between atoms: N_13  and  C_14
REMARK   12  A    between atoms: C_14  and  N_17
REMARK                            x       y       z     vdW  Elec       q    Type
REMARK                         _______ _______ _______ _____ _____    ______ ____
ROOT
ATOM      3  C   UNL     1       6.750   2.049   0.000  0.00  0.00    +0.107 C 
ATOM      9  N   UNL     1       7.500   0.750   0.000  0.00  0.00    -0.181 NA
ENDROOT
BRANCH   3   2
ATOM      1  N   UNL     1       4.500   0.750   0.000  0.00  0.00    -0.187 NA
ATOM      2  C   UNL     1       5.250   2.049   0.000  0.00  0.00    +0.157 C 
BRANCH   1  17
ATOM     17  N   UNL     1       3.000   0.750   0.000  0.00  0.00    -0.219 N 
ATOM     18  H   UNL     1       2.508  -0.103   0.000  0.00  0.00    +0.176 HD
BRANCH  17  19
ATOM     19  C   UNL     1       2.250   2.049   0.000  0.00  0.00    +0.147 C 
ATOM     20  S   UNL     1       3.000   3.348   0.000  0.00  0.00    -0.017 S 
BRANCH  19  21
ATOM     21  N   UNL     1       0.750   2.049   0.000  0.00  0.00    -0.339 N 
ATOM     22  H   UNL     1       0.258   1.196   0.000  0.00  0.00    +0.144 HD
ATOM     23  H   UNL     1       0.258   2.902   0.000  0.00  0.00    +0.144 HD
ENDBRANCH  19  21
ENDBRANCH  17  19
ENDBRANCH   1  17
ENDBRANCH   3   2
BRANCH   3   4
ATOM      4  C   UNL     1       7.500   3.348   0.000  0.00  0.00    +0.167 C 
ATOM      5  C   UNL     1       6.750   4.647   0.000  0.00  0.00    +0.045 C 
BRANCH   4   6
ATOM      6  O   UNL     1       9.000   3.348   0.000  0.00  0.00    -0.371 OA
BRANCH   6   7
ATOM      7  C   UNL     1       9.750   4.647   0.000  0.00  0.00    +0.157 C 
ATOM      8  C   UNL     1      11.250   4.647   0.000  0.00  0.00    +0.034 C 
ENDBRANCH   6   7
ENDBRANCH   4   6
ENDBRANCH   3   4
BRANCH   9  10
ATOM     10  N   UNL     1       6.750  -0.549   0.000  0.00  0.00    -0.218 N 
ATOM     11  H   UNL     1       7.242  -1.402   0.000  0.00  0.00    +0.176 HD
BRANCH  10  12
ATOM     12  C   UNL     1       5.250  -0.549   0.000  0.00  0.00    +0.147 C 
ATOM     16  S   UNL     1       4.500   0.750   0.000  0.00  0.00    -0.017 S 
BRANCH  12  13
ATOM     13  N   UNL     1       4.500  -1.848   0.000  0.00  0.00    -0.339 N 
ATOM     14  H   UNL     1       4.992  -2.701   0.000  0.00  0.00    +0.144 HD
ATOM     15  H   UNL     1       3.516  -1.848   0.000  0.00  0.00    +0.144 HD
ENDBRANCH  12  13
ENDBRANCH  10  12
ENDBRANCH   9  10
TORSDOF 10