REMARK  Name = 79688
REMARK  11 active torsions:
REMARK  status: ('A' for Active; 'I' for Inactive)
REMARK    1  A    between atoms: N_2  and  N_23
REMARK    2  A    between atoms: C_5  and  O_19
REMARK    3  A    between atoms: C_9  and  C_20
REMARK    4  A    between atoms: C_13  and  C_24
REMARK    5  A    between atoms: C_14  and  C_32
REMARK    6  A    between atoms: C_18  and  N_25
REMARK    7  A    between atoms: C_20  and  C_21
REMARK    8  A    between atoms: N_25  and  C_26
REMARK    9  A    between atoms: N_25  and  C_29
REMARK   10  A    between atoms: C_26  and  C_27
REMARK   11  A    between atoms: C_29  and  C_30
REMARK                            x       y       z     vdW  Elec       q    Type
REMARK                         _______ _______ _______ _____ _____    ______ ____
ROOT
ATOM      6  C   UNL     1      -1.783  -1.861   0.000  0.00  0.00    +0.237 C 
ATOM      7  N   UNL     1      -1.783  -3.361   0.000  0.00  0.00    -0.207 N 
ATOM      8  H   UNL     1      -2.589  -3.925   0.000  0.00  0.00    +0.177 HD
ATOM     25  O   UNL     1      -3.082  -1.111   0.000  0.00  0.00    -0.274 OA
ENDROOT
BRANCH   7   9
ATOM      9  N   UNL     1      -0.373  -3.874   0.000  0.00  0.00    -0.188 NA
ATOM     10  C   UNL     1       0.776  -2.910   0.000  0.00  0.00    +0.138 C 
BRANCH  10  11
ATOM     11  C   UNL     1       2.185  -3.422   0.000  0.00  0.00    -0.002 A 
ATOM     12  C   UNL     1       3.334  -2.458   0.000  0.00  0.00    +0.011 A 
ATOM     13  C   UNL     1       4.744  -2.971   0.000  0.00  0.00    +0.024 A 
ATOM     14  C   UNL     1       5.005  -4.449   0.000  0.00  0.00    +0.030 A 
ATOM     22  C   UNL     1       3.856  -5.413   0.000  0.00  0.00    +0.027 A 
ATOM     23  C   UNL     1       2.446  -4.900   0.000  0.00  0.00    -0.040 A 
ATOM     24  C   UNL     1       1.297  -5.864   0.000  0.00  0.00    +0.044 C 
BRANCH  14  15
ATOM     15  N   UNL     1       6.414  -4.962   0.000  0.00  0.00    -0.328 N 
BRANCH  15  16
ATOM     16  C   UNL     1       6.675  -6.439   0.000  0.00  0.00    +0.121 C 
BRANCH  16  17
ATOM     17  C   UNL     1       8.084  -6.952   0.000  0.00  0.00    +0.127 C 
ATOM     18 CL   UNL     1       9.233  -5.988   0.000  0.00  0.00    -0.124 Cl
ENDBRANCH  16  17
ENDBRANCH  15  16
BRANCH  15  19
ATOM     19  C   UNL     1       7.563  -3.997   0.000  0.00  0.00    +0.121 C 
BRANCH  19  20
ATOM     20  C   UNL     1       7.303  -2.520   0.000  0.00  0.00    +0.127 C 
ATOM     21 CL   UNL     1       8.452  -1.556   0.000  0.00  0.00    -0.124 Cl
ENDBRANCH  19  20
ENDBRANCH  15  19
ENDBRANCH  14  15
ENDBRANCH  10  11
ENDBRANCH   7   9
BRANCH   6   5
ATOM      5  C   UNL     1      -0.484  -1.111   0.000  0.00  0.00    +0.133 C 
BRANCH   5   4
ATOM      1  O   UNL     1       3.413  -3.361   0.000  0.00  0.00    -0.422 OA
ATOM      2  C   UNL     1       2.114  -4.111   0.000  0.00  0.00    +0.337 A 
ATOM      3  C   UNL     1       0.815  -3.361   0.000  0.00  0.00    +0.096 A 
ATOM      4  C   UNL     1       0.815  -1.861   0.000  0.00  0.00    -0.021 A 
ATOM     26  C   UNL     1       2.114  -1.111   0.000  0.00  0.00    +0.021 A 
ATOM     27  C   UNL     1       2.114   0.389   0.000  0.00  0.00    +0.015 A 
ATOM     28  C   UNL     1       3.413   1.139   0.000  0.00  0.00    +0.046 A 
ATOM     29  C   UNL     1       4.713   0.389   0.000  0.00  0.00    +0.120 A 
ATOM     32  C   UNL     1       4.713  -1.111   0.000  0.00  0.00    +0.092 A 
ATOM     33  O   UNL     1       2.114  -5.611   0.000  0.00  0.00    -0.245 OA
ATOM     34  C   UNL     1       3.413  -1.861   0.000  0.00  0.00    +0.143 A 
BRANCH  29  30
ATOM     30  O   UNL     1       6.011   1.139   0.000  0.00  0.00    -0.507 OA
ATOM     31  H   UNL     1       6.823   0.671   0.000  0.00  0.00    +0.292 HD
ENDBRANCH  29  30
ENDBRANCH   5   4
ENDBRANCH   6   5
TORSDOF 10