REMARK  Name = 79451
REMARK  6 active torsions:
REMARK  status: ('A' for Active; 'I' for Inactive)
REMARK    1  A    between atoms: C_1  and  C_13
REMARK    2  A    between atoms: C_3  and  N_17
REMARK    3  A    between atoms: C_6  and  N_14
REMARK    4  A    between atoms: C_8  and  C_18
REMARK    5  A    between atoms: C_11  and  O_20
REMARK    6  A    between atoms: C_12  and  N_21
REMARK                            x       y       z     vdW  Elec       q    Type
REMARK                         _______ _______ _______ _____ _____    ______ ____
ROOT
ATOM     11  N   UNL     1      -4.821  -6.649   0.000  0.00  0.00    -0.281 N 
ATOM     12  H   UNL     1      -3.969  -7.142   0.000  0.00  0.00    +0.155 HD
ATOM     13  C   UNL     1      -4.821  -5.149   0.000  0.00  0.00    +0.252 C 
ATOM     14  O   UNL     1      -6.120  -4.399   0.000  0.00  0.00    -0.270 OA
ENDROOT
BRANCH  11  10
ATOM      1  C   UNL     1      -7.419  -6.649   0.000  0.00  0.00    -0.029 A 
ATOM      2  C   UNL     1      -7.419  -5.149   0.000  0.00  0.00    +0.045 C 
ATOM      3  C   UNL     1      -8.718  -7.399   0.000  0.00  0.00    +0.012 A 
ATOM      4  C   UNL     1      -8.718  -8.899   0.000  0.00  0.00    +0.084 A 
ATOM      5  C   UNL     1      -7.419  -9.649   0.000  0.00  0.00    +0.275 A 
ATOM      9  C   UNL     1      -6.120  -8.899   0.000  0.00  0.00    +0.107 A 
ATOM     10  C   UNL     1      -6.120  -7.399   0.000  0.00  0.00    +0.043 A 
BRANCH   5   6
ATOM      6  N   UNL     1      -7.419 -11.150   0.000  0.00  0.00    +0.080 N 
ATOM      7  O   UNL     1      -6.120 -11.900   0.000  0.00  0.00    +0.041 OA
ATOM      8  O   UNL     1      -8.718 -11.900   0.000  0.00  0.00    -0.576 OA
ENDBRANCH   5   6
ENDBRANCH  11  10
BRANCH  13  15
ATOM     15  C   UNL     1      -3.522  -4.399   0.000  0.00  0.00    +0.085 A 
ATOM     16  C   UNL     1      -2.223  -5.149   0.000  0.00  0.00    +0.207 A 
ATOM     19  C   UNL     1      -0.924  -4.399   0.000  0.00  0.00    +0.315 A 
ATOM     23  C   UNL     1      -0.924  -2.900   0.000  0.00  0.00    +0.088 A 
ATOM     24  C   UNL     1      -2.223  -2.150   0.000  0.00  0.00    +0.008 A 
ATOM     25  C   UNL     1      -3.522  -2.900   0.000  0.00  0.00    +0.017 A 
BRANCH  19  20
ATOM     20  N   UNL     1       0.375  -5.149   0.000  0.00  0.00    +0.083 N 
ATOM     21  O   UNL     1       1.674  -4.399   0.000  0.00  0.00    +0.042 OA
ATOM     22  O   UNL     1       0.375  -6.649   0.000  0.00  0.00    -0.576 OA
ENDBRANCH  19  20
BRANCH  16  17
ATOM     17  O   UNL     1      -2.223  -6.649   0.000  0.00  0.00    -0.501 OA
ATOM     18  H   UNL     1      -3.035  -7.118   0.000  0.00  0.00    +0.292 HD
ENDBRANCH  16  17
ENDBRANCH  13  15
TORSDOF 5