REMARK  Name = 73495
REMARK  23 active torsions:
REMARK  status: ('A' for Active; 'I' for Inactive)
REMARK    1  A    between atoms: C_1  and  C_8
REMARK    2  A    between atoms: C_2  and  C_19
REMARK    3  A    between atoms: C_3  and  C_20
REMARK    4  A    between atoms: C_4  and  C_33
REMARK    5  A    between atoms: C_8  and  C_9
REMARK    6  A    between atoms: C_9  and  C_10
REMARK    7  A    between atoms: C_10  and  C_11
REMARK    8  A    between atoms: C_11  and  C_12
REMARK    9  A    between atoms: C_12  and  C_13
REMARK   10  A    between atoms: C_13  and  C_14
REMARK   11  A    between atoms: C_14  and  C_15
REMARK   12  A    between atoms: C_15  and  C_16
REMARK   13  A    between atoms: C_16  and  C_17
REMARK   14  A    between atoms: C_17  and  C_18
REMARK   15  A    between atoms: C_18  and  O_46
REMARK   16  A    between atoms: C_25  and  O_36
REMARK   17  A    between atoms: C_26  and  O_37
REMARK   18  A    between atoms: C_28  and  N_35
REMARK   19  A    between atoms: C_30  and  O_38
REMARK   20  A    between atoms: C_31  and  C_33
REMARK   21  A    between atoms: C_34  and  O_39
REMARK   22  A    between atoms: O_40  and  S_47
REMARK   23  A    between atoms: O_46  and  S_47
REMARK                            x       y       z     vdW  Elec       q    Type
REMARK                         _______ _______ _______ _____ _____    ______ ____
ROOT
ATOM      1  C   UNL     1      17.637  10.098   0.000  0.00  0.00    +0.047 C 
ATOM      2  C   UNL     1      16.339   9.348   0.000  0.00  0.00    -0.008 A 
ATOM      3  C   UNL     1      15.039  10.098   0.000  0.00  0.00    +0.131 A 
ATOM      6  C   UNL     1      13.740   9.348   0.000  0.00  0.00    +0.066 A 
ATOM      7  C   UNL     1      12.441  10.098   0.000  0.00  0.00    +0.139 A 
ATOM     10  C   UNL     1      11.142   9.348   0.000  0.00  0.00    +0.066 A 
ATOM     11  C   UNL     1       9.843  10.098   0.000  0.00  0.00    +0.206 C 
ATOM     12  O   UNL     1       9.843  11.598   0.000  0.00  0.00    -0.288 OA
ATOM     13  C   UNL     1       8.544   9.348   0.000  0.00  0.00    +0.196 C 
ATOM     16  C   UNL     1       7.245  10.098   0.000  0.00  0.00    +0.209 C 
ATOM     17  O   UNL     1       7.245  11.598   0.000  0.00  0.00    -0.288 OA
ATOM     18  C   UNL     1       5.946   9.348   0.000  0.00  0.00    +0.101 C 
ATOM     22  C   UNL     1       5.946   7.848   0.000  0.00  0.00    +0.125 C 
ATOM     25  C   UNL     1       7.245   7.098   0.000  0.00  0.00    +0.125 C 
ATOM     29  C   UNL     1       8.544   7.848   0.000  0.00  0.00    +0.065 C 
ATOM     30  C   UNL     1       9.843   7.098   0.000  0.00  0.00    +0.045 C 
ATOM     31  C   UNL     1      11.142   7.848   0.000  0.00  0.00    -0.029 A 
ATOM     32  C   UNL     1      12.441   7.098   0.000  0.00  0.00    -0.039 A 
ATOM     33  C   UNL     1      12.441   5.598   0.000  0.00  0.00    +0.044 C 
ATOM     34  C   UNL     1      13.740   7.848   0.000  0.00  0.00    -0.008 A 
ATOM     35  C   UNL     1      15.039   7.098   0.000  0.00  0.00    +0.009 A 
ATOM     36  C   UNL     1      16.339   7.848   0.000  0.00  0.00    +0.007 A 
ENDROOT
BRANCH  18  19
ATOM     19  C   UNL     1       4.647  10.098   0.000  0.00  0.00    +0.167 C 
ATOM     20  O   UNL     1       4.647  11.598   0.000  0.00  0.00    -0.292 OA
ATOM     21  C   UNL     1       3.348   9.348   0.000  0.00  0.00    +0.092 C 
ENDBRANCH  18  19
BRANCH  25  26
ATOM     26  N   UNL     1       7.245   5.598   0.000  0.00  0.00    -0.321 NA
ATOM     27  H   UNL     1       8.544   4.848   0.000  0.00  0.00    +0.119 HD
ATOM     28  H   UNL     1       5.946   4.848   0.000  0.00  0.00    +0.119 HD
ENDBRANCH  25  26
BRANCH   3   4
ATOM      4  O   UNL     1      15.039  11.598   0.000  0.00  0.00    -0.506 OA
ATOM      5  H   UNL     1      16.339  12.348   0.000  0.00  0.00    +0.292 HD
ENDBRANCH   3   4
BRANCH   7   8
ATOM      8  O   UNL     1      12.441  11.598   0.000  0.00  0.00    -0.505 OA
ATOM      9  H   UNL     1      13.740  12.348   0.000  0.00  0.00    +0.292 HD
ENDBRANCH   7   8
BRANCH  13  14
ATOM     14  O   UNL     1       8.544  11.823   0.000  0.00  0.00    -0.373 OA
ATOM     15  H   UNL     1       7.245  12.573   0.000  0.00  0.00    +0.211 HD
ENDBRANCH  13  14
BRANCH  22  23
ATOM     23  O   UNL     1       4.647   7.098   0.000  0.00  0.00    -0.509 OA
ATOM     24  H   UNL     1       4.647   5.598   0.000  0.00  0.00    +0.292 HD
ENDBRANCH  22  23
TORSDOF 6