REMARK  Name = 92510
REMARK  9 active torsions:
REMARK  status: ('A' for Active; 'I' for Inactive)
REMARK    1  A    between atoms: C_7  and  C_10
REMARK    2  A    between atoms: C_10  and  C_11
REMARK    3  A    between atoms: C_11  and  C_12
REMARK    4  A    between atoms: C_12  and  C_13
REMARK    5  A    between atoms: C_13  and  C_14
REMARK    6  A    between atoms: C_14  and  C_15
REMARK    7  A    between atoms: C_15  and  C_16
REMARK    8  A    between atoms: C_16  and  C_17
REMARK    9  A    between atoms: C_17  and  C_18
REMARK                            x       y       z     vdW  Elec       q    Type
REMARK                         _______ _______ _______ _____ _____    ______ ____
ROOT
ATOM      1 CL   UNL     1       0.750   0.750   0.000  0.00  0.00    -0.041 Cl
ATOM      2  C   UNL     1       2.049   1.500   0.000  0.00  0.00    +0.225 A 
ATOM      3  N   UNL     1       3.348   0.750   0.000  0.00  0.00    -0.205 NA
ATOM      4  C   UNL     1       4.647   1.500   0.000  0.00  0.00    +0.138 A 
ATOM      5  C   UNL     1       4.647   3.000   0.000  0.00  0.00    +0.026 A 
ATOM     15  C   UNL     1       3.348   3.750   0.000  0.00  0.00    +0.138 A 
ATOM     16 CL   UNL     1       3.348   5.250   0.000  0.00  0.00    -0.062 Cl
ATOM     17 CL   UNL     1       5.946   0.750   0.000  0.00  0.00    -0.062 Cl
ATOM     18  N   UNL     1       2.049   3.000   0.000  0.00  0.00    -0.205 NA
ENDROOT
BRANCH   5   6
ATOM      6  C   UNL     1       5.946   3.750   0.000  0.00  0.00    +0.041 C 
BRANCH   6   7
ATOM      7  C   UNL     1       7.245   3.000   0.000  0.00  0.00    +0.005 C 
BRANCH   7   8
ATOM      8  C   UNL     1       8.544   3.750   0.000  0.00  0.00    +0.000 C 
BRANCH   8   9
ATOM      9  C   UNL     1       9.843   3.000   0.000  0.00  0.00    +0.000 C 
BRANCH   9  10
ATOM     10  C   UNL     1      11.142   3.750   0.000  0.00  0.00    +0.000 C 
BRANCH  10  11
ATOM     11  C   UNL     1      12.441   3.000   0.000  0.00  0.00    -0.000 C 
BRANCH  11  12
ATOM     12  C   UNL     1      13.740   3.750   0.000  0.00  0.00    -0.000 C 
BRANCH  12  13
ATOM     13  C   UNL     1      15.039   3.000   0.000  0.00  0.00    -0.003 C 
ATOM     14  C   UNL     1      15.039   1.500   0.000  0.00  0.00    +0.004 C 
ENDBRANCH  12  13
ENDBRANCH  11  12
ENDBRANCH  10  11
ENDBRANCH   9  10
ENDBRANCH   8   9
ENDBRANCH   7   8
ENDBRANCH   6   7
ENDBRANCH   5   6
TORSDOF 8