REMARK  Name = 93419
REMARK  15 active torsions:
REMARK  status: ('A' for Active; 'I' for Inactive)
REMARK    1  A    between atoms: O_1  and  C_2
REMARK    2  A    between atoms: O_1  and  C_32
REMARK    3  A    between atoms: C_5  and  O_33
REMARK    4  A    between atoms: C_8  and  O_34
REMARK    5  A    between atoms: C_13  and  C_36
REMARK    6  A    between atoms: C_14  and  O_35
REMARK    7  A    between atoms: C_17  and  O_19
REMARK    8  A    between atoms: O_19  and  C_38
REMARK    9  A    between atoms: C_21  and  O_26
REMARK   10  A    between atoms: C_22  and  O_37
REMARK   11  A    between atoms: O_26  and  C_27
REMARK   12  A    between atoms: C_29  and  O_31
REMARK   13  A    between atoms: C_30  and  O_39
REMARK   14  A    between atoms: C_30  and  C_40
REMARK   15  A    between atoms: O_31  and  C_41
REMARK                            x       y       z     vdW  Elec       q    Type
REMARK                         _______ _______ _______ _____ _____    ______ ____
ROOT
ATOM      3  C   UNL     1       3.348   9.000   0.000  0.00  0.00    +0.124 A 
ATOM      4  C   UNL     1       3.348   7.500   0.000  0.00  0.00    +0.091 A 
ATOM      5  C   UNL     1       4.647   6.750   0.000  0.00  0.00    +0.132 A 
ATOM      8  C   UNL     1       5.946   7.500   0.000  0.00  0.00    +0.075 A 
ATOM      9  C   UNL     1       7.245   6.750   0.000  0.00  0.00    +0.202 C 
ATOM     10  O   UNL     1       7.245   5.250   0.000  0.00  0.00    -0.286 OA
ATOM     11  C   UNL     1       8.544   7.500   0.000  0.00  0.00    +0.075 A 
ATOM     12  C   UNL     1       9.843   6.750   0.000  0.00  0.00    +0.135 A 
ATOM     15  C   UNL     1      11.142   7.500   0.000  0.00  0.00    +0.037 A 
ATOM     16  C   UNL     1      12.441   6.750   0.000  0.00  0.00    +0.187 C 
ATOM     17  C   UNL     1      13.740   7.500   0.000  0.00  0.00    +0.190 C 
ATOM     20  C   UNL     1      13.740   9.000   0.000  0.00  0.00    +0.154 C 
ATOM     21  C   UNL     1      14.253  10.410   0.000  0.00  0.00    +0.053 C 
ATOM     24  C   UNL     1      12.441   9.750   0.000  0.00  0.00    +0.197 C 
ATOM     25  O   UNL     1      12.441  11.250   0.000  0.00  0.00    -0.289 OA
ATOM     40  C   UNL     1      11.142   9.000   0.000  0.00  0.00    +0.030 A 
ATOM     41  C   UNL     1       9.843   9.750   0.000  0.00  0.00    +0.024 A 
ATOM     42  C   UNL     1       8.544   9.000   0.000  0.00  0.00    +0.037 A 
ATOM     43  C   UNL     1       7.245   9.750   0.000  0.00  0.00    +0.195 C 
ATOM     44  O   UNL     1       7.245  11.250   0.000  0.00  0.00    -0.287 OA
ATOM     45  C   UNL     1       5.946   9.000   0.000  0.00  0.00    +0.040 A 
ATOM     46  C   UNL     1       4.647   9.750   0.000  0.00  0.00    +0.058 A 
ENDROOT
BRANCH   3   1
ATOM      1  O   UNL     1       2.049   9.750   0.000  0.00  0.00    -0.495 OA
ATOM      2  C   UNL     1       0.750   9.000   0.000  0.00  0.00    +0.277 C 
ENDBRANCH   3   1
BRANCH   5   6
ATOM      6  O   UNL     1       4.647   5.250   0.000  0.00  0.00    -0.506 OA
ATOM      7  H   UNL     1       3.836   4.782   0.000  0.00  0.00    +0.292 HD
ENDBRANCH   5   6
BRANCH  12  13
ATOM     13  O   UNL     1       9.843   5.250   0.000  0.00  0.00    -0.506 OA
ATOM     14  H   UNL     1       9.032   4.782   0.000  0.00  0.00    +0.292 HD
ENDBRANCH  12  13
BRANCH  17  18
ATOM     18  O   UNL     1      15.039   6.750   0.000  0.00  0.00    -0.374 OA
ATOM     19  C   UNL     1      16.339   7.500   0.000  0.00  0.00    +0.194 C 
ENDBRANCH  17  18
BRANCH  20  22
ATOM     22  O   UNL     1      15.218   8.739   0.000  0.00  0.00    -0.378 OA
ATOM     23  H   UNL     1      15.549   7.828   0.000  0.00  0.00    +0.211 HD
ENDBRANCH  20  22
BRANCH  16  26
ATOM     26  O   UNL     1      12.441   5.250   0.000  0.00  0.00    -0.338 OA
BRANCH  26  27
ATOM     27  C   UNL     1      13.740   4.500   0.000  0.00  0.00    +0.283 C 
ATOM     28  C   UNL     1      13.740   3.000   0.000  0.00  0.00    +0.205 C 
ATOM     31  C   UNL     1      15.039   2.250   0.000  0.00  0.00    +0.179 C 
ATOM     34  C   UNL     1      16.339   3.000   0.000  0.00  0.00    +0.174 C 
ATOM     37  C   UNL     1      16.339   4.500   0.000  0.00  0.00    +0.149 C 
ATOM     38  C   UNL     1      15.039   3.750   0.000  0.00  0.00    +0.041 C 
ATOM     39  O   UNL     1      15.039   5.250   0.000  0.00  0.00    -0.343 OA
BRANCH  28  29
ATOM     29  O   UNL     1      12.441   2.250   0.000  0.00  0.00    -0.372 OA
ATOM     30  C   UNL     1      11.142   3.000   0.000  0.00  0.00    +0.194 C 
ENDBRANCH  28  29
BRANCH  31  32
ATOM     32  O   UNL     1      15.039   0.750   0.000  0.00  0.00    -0.386 OA
ATOM     33  H   UNL     1      14.199   0.265   0.000  0.00  0.00    +0.210 HD
ENDBRANCH  31  32
BRANCH  34  35
ATOM     35  O   UNL     1      17.637   2.250   0.000  0.00  0.00    -0.387 OA
ATOM     36  H   UNL     1      17.637   1.280   0.000  0.00  0.00    +0.210 HD
ENDBRANCH  34  35
ENDBRANCH  26  27
ENDBRANCH  16  26
TORSDOF 10