REMARK  Name = 261610
REMARK  7 active torsions:
REMARK  status: ('A' for Active; 'I' for Inactive)
REMARK    1  A    between atoms: C_1  and  C_2
REMARK    2  A    between atoms: C_1  and  C_11
REMARK    3  A    between atoms: C_4  and  N_12
REMARK    4  A    between atoms: C_9  and  N_13
REMARK    5  A    between atoms: N_13  and  C_15
REMARK    6  A    between atoms: C_14  and  C_15
REMARK    7  A    between atoms: C_15  and  C_16
REMARK                            x       y       z     vdW  Elec       q    Type
REMARK                         _______ _______ _______ _____ _____    ______ ____
ROOT
ATOM      7  C   UNL     1       4.500   2.049   0.000  0.00  0.00    +0.034 A 
ATOM      8  C   UNL     1       5.250   0.750   0.000  0.00  0.00    +0.025 A 
ATOM      9  C   UNL     1       6.750   0.750   0.000  0.00  0.00    +0.025 A 
ATOM     10  C   UNL     1       7.500   2.049   0.000  0.00  0.00    +0.027 A 
ATOM     16  C   UNL     1       6.750   3.348   0.000  0.00  0.00    +0.025 A 
ATOM     17  C   UNL     1       5.250   3.348   0.000  0.00  0.00    +0.025 A 
ENDROOT
BRANCH   7   5
ATOM      4  C   UNL     1       2.250   3.348   0.000  0.00  0.00    +0.243 C 
ATOM      5  N   UNL     1       3.000   2.049   0.000  0.00  0.00    -0.282 N 
ATOM      6  H   UNL     1       2.508   1.196   0.000  0.00  0.00    +0.155 HD
ATOM     18  O   UNL     1       0.750   3.348   0.000  0.00  0.00    -0.270 OA
BRANCH   4   1
ATOM      1  C   UNL     1       3.000   4.647   0.000  0.00  0.00    +0.004 C 
ATOM      2  C   UNL     1       4.500   4.647   0.000  0.00  0.00    +0.048 C 
ATOM      3  C   UNL     1       2.250   5.946   0.000  0.00  0.00    +0.017 C 
ENDBRANCH   4   1
ENDBRANCH   7   5
BRANCH  10  11
ATOM     11  N   UNL     1       9.000   2.049   0.000  0.00  0.00    -0.342 N 
ATOM     12  H   UNL     1       9.492   1.196   0.000  0.00  0.00    +0.146 HD
BRANCH  11  13
ATOM     13  C   UNL     1       9.750   3.348   0.000  0.00  0.00    +0.064 C 
ATOM     14  C   UNL     1       9.000   4.647   0.000  0.00  0.00    +0.027 C 
ATOM     15  C   UNL     1      11.250   3.348   0.000  0.00  0.00    +0.027 C 
ENDBRANCH  11  13
ENDBRANCH  10  11
TORSDOF 4