REMARK  Name = 23715
REMARK  7 active torsions:
REMARK  status: ('A' for Active; 'I' for Inactive)
REMARK    1  A    between atoms: N_2  and  C_12
REMARK    2  A    between atoms: N_3  and  C_13
REMARK    3  A    between atoms: N_5  and  C_14
REMARK    4  A    between atoms: N_15  and  C_16
REMARK    5  A    between atoms: C_16  and  C_17
REMARK    6  A    between atoms: C_16  and  C_19
REMARK    7  A    between atoms: C_17  and  C_18
REMARK                            x       y       z     vdW  Elec       q    Type
REMARK                         _______ _______ _______ _____ _____    ______ ____
ROOT
ATOM      1  O   UNL     1       0.750   2.250   0.000  0.00  0.00    -0.246 OA
ATOM      2  C   UNL     1       2.049   3.000   0.000  0.00  0.00    +0.333 A 
ATOM      3  N   UNL     1       3.348   2.250   0.000  0.00  0.00    -0.280 N 
ATOM      4  C   UNL     1       3.348   0.750   0.000  0.00  0.00    +0.155 C 
ATOM      5  C   UNL     1       4.647   3.000   0.000  0.00  0.00    +0.170 A 
ATOM      6  C   UNL     1       4.647   4.500   0.000  0.00  0.00    +0.153 A 
ATOM      7  C   UNL     1       3.348   5.250   0.000  0.00  0.00    +0.282 A 
ATOM      8  O   UNL     1       3.348   6.750   0.000  0.00  0.00    -0.265 OA
ATOM      9  N   UNL     1       6.074   4.963   0.000  0.00  0.00    -0.309 N 
ATOM     10  C   UNL     1       6.537   6.390   0.000  0.00  0.00    +0.152 C 
ATOM     11  C   UNL     1       6.955   3.750   0.000  0.00  0.00    +0.198 A 
ATOM     12  N   UNL     1       8.455   3.750   0.000  0.00  0.00    -0.312 N 
ATOM     13  H   UNL     1       8.948   4.603   0.000  0.00  0.00    +0.149 HD
ATOM     18  N   UNL     1       6.074   2.537   0.000  0.00  0.00    -0.196 NA
ATOM     19  N   UNL     1       2.049   4.500   0.000  0.00  0.00    -0.262 N 
ATOM     20  C   UNL     1       0.750   5.250   0.000  0.00  0.00    +0.157 C 
ENDROOT
BRANCH  12  14
ATOM     14  C   UNL     1       9.205   2.451   0.000  0.00  0.00    +0.070 C 
ATOM     15  C   UNL     1       8.455   1.152   0.000  0.00  0.00    +0.028 C 
BRANCH  14  16
ATOM     16  C   UNL     1      10.705   2.451   0.000  0.00  0.00    +0.018 C 
ATOM     17  C   UNL     1      11.455   1.152   0.000  0.00  0.00    +0.005 C 
ENDBRANCH  14  16
ENDBRANCH  12  14
TORSDOF 2