REMARK  Name = 236254
REMARK  4 active torsions:
REMARK  status: ('A' for Active; 'I' for Inactive)
REMARK    1  A    between atoms: C_1  and  C_8
REMARK    2  A    between atoms: N_2  and  O_7
REMARK    3  A    between atoms: C_3  and  C_14
REMARK    4  A    between atoms: C_5  and  C_15
REMARK                            x       y       z     vdW  Elec       q    Type
REMARK                         _______ _______ _______ _____ _____    ______ ____
ROOT
ATOM      1  C   UNL     1      -6.654  -5.248   0.000  0.00  0.00    +0.149 A 
ATOM      8  N   UNL     1      -6.190  -6.675   0.000  0.00  0.00    -0.003 N 
ATOM     11  N   UNL     1      -4.690  -6.675   0.000  0.00  0.00    -0.046 N 
ATOM     12  O   UNL     1      -3.808  -7.888   0.000  0.00  0.00    -0.595 OA
ATOM     13  C   UNL     1      -4.227  -5.248   0.000  0.00  0.00    +0.259 A 
ATOM     20  C   UNL     1      -5.440  -4.366   0.000  0.00  0.00    +0.057 A 
ATOM     21  C   UNL     1      -5.440  -2.866   0.000  0.00  0.00    +0.053 C 
ENDROOT
BRANCH   1   2
ATOM      2  C   UNL     1      -8.080  -4.785   0.000  0.00  0.00    +0.007 A 
ATOM      3  C   UNL     1      -8.392  -3.317   0.000  0.00  0.00    +0.010 A 
ATOM      4  C   UNL     1      -9.819  -2.854   0.000  0.00  0.00    +0.001 A 
ATOM      5  C   UNL     1     -10.933  -3.857   0.000  0.00  0.00    +0.000 A 
ATOM      6  C   UNL     1     -10.621  -5.325   0.000  0.00  0.00    +0.001 A 
ATOM      7  C   UNL     1      -9.195  -5.788   0.000  0.00  0.00    +0.010 A 
ENDBRANCH   1   2
BRANCH  13  14
ATOM     14  C   UNL     1      -2.800  -4.785   0.000  0.00  0.00    +0.050 A 
ATOM     15  C   UNL     1      -1.685  -5.788   0.000  0.00  0.00    +0.014 A 
ATOM     16  C   UNL     1      -0.259  -5.325   0.000  0.00  0.00    +0.001 A 
ATOM     17  C   UNL     1       0.053  -3.857   0.000  0.00  0.00    +0.000 A 
ATOM     18  C   UNL     1      -1.062  -2.854   0.000  0.00  0.00    +0.001 A 
ATOM     19  C   UNL     1      -2.488  -3.317   0.000  0.00  0.00    +0.014 A 
ENDBRANCH  13  14
BRANCH   8   9
ATOM      9  O   UNL     1      -7.072  -7.888   0.000  0.00  0.00    -0.234 OA
ATOM     10  H   UNL     1      -8.036  -7.787   0.000  0.00  0.00    +0.250 HD
ENDBRANCH   8   9
TORSDOF 3