REMARK  Name = 23247
REMARK  3 active torsions:
REMARK  status: ('A' for Active; 'I' for Inactive)
REMARK    1  A    between atoms: N_4  and  C_12
REMARK    2  A    between atoms: C_9  and  C_11
REMARK    3  A    between atoms: C_17  and  C_18
REMARK                            x       y       z     vdW  Elec       q    Type
REMARK                         _______ _______ _______ _____ _____    ______ ____
ROOT
ATOM      1  N   UNL     1       1.500  -2.190   0.000  0.00  0.00    -0.022 NA
ATOM      2  N   UNL     1       2.250  -3.489   0.000  0.00  0.00    -0.039 NA
ATOM      3  N   UNL     1       3.717  -3.177   0.000  0.00  0.00    -0.193 N 
ATOM     11  C   UNL     1       3.874  -1.686   0.000  0.00  0.00    +0.188 A 
ATOM     18  N   UNL     1       2.504  -1.075   0.000  0.00  0.00    -0.108 NA
ENDROOT
BRANCH   3   4
ATOM      4  C   UNL     1       4.832  -4.181   0.000  0.00  0.00    +0.069 A 
ATOM      5  C   UNL     1       4.520  -5.648   0.000  0.00  0.00    +0.028 A 
ATOM      6  C   UNL     1       5.635  -6.652   0.000  0.00  0.00    +0.005 A 
ATOM      7  C   UNL     1       7.062  -6.189   0.000  0.00  0.00    -0.050 A 
ATOM      8  C   UNL     1       8.176  -7.192   0.000  0.00  0.00    +0.044 C 
ATOM      9  C   UNL     1       7.373  -4.721   0.000  0.00  0.00    +0.005 A 
ATOM     10  C   UNL     1       6.259  -3.718   0.000  0.00  0.00    +0.028 A 
ENDBRANCH   3   4
BRANCH  11  12
ATOM     12  C   UNL     1       5.173  -0.936   0.000  0.00  0.00    +0.039 A 
ATOM     13  C   UNL     1       5.173   0.564   0.000  0.00  0.00    +0.122 A 
ATOM     14  N   UNL     1       6.472   1.314   0.000  0.00  0.00    -0.263 NA
ATOM     15  C   UNL     1       7.771   0.564   0.000  0.00  0.00    +0.111 A 
ATOM     16  C   UNL     1       7.771  -0.936   0.000  0.00  0.00    +0.020 A 
ATOM     17  C   UNL     1       6.472  -1.686   0.000  0.00  0.00    +0.014 A 
ENDBRANCH  11  12
TORSDOF 2