REMARK  Name = 263220
REMARK  4 active torsions:
REMARK  status: ('A' for Active; 'I' for Inactive)
REMARK    1  A    between atoms: S_2  and  C_6
REMARK    2  A    between atoms: S_2  and  N_19
REMARK    3  A    between atoms: C_16  and  C_20
REMARK    4  A    between atoms: C_20  and  C_21
REMARK                            x       y       z     vdW  Elec       q    Type
REMARK                         _______ _______ _______ _____ _____    ______ ____
ROOT
ATOM      7  C   UNL     1       3.348   3.000   0.000  0.00  0.00    +0.125 A 
ATOM      8  C   UNL     1       4.647   2.250   0.000  0.00  0.00    +0.060 A 
ATOM      9  C   UNL     1       5.946   3.000   0.000  0.00  0.00    +0.128 A 
ATOM     10  S   UNL     1       7.245   2.250   0.000  0.00  0.00    +0.062 S 
ATOM     11  O   UNL     1       7.245   0.750   0.000  0.00  0.00    -0.153 OA
ATOM     12  N   UNL     1       8.544   3.000   0.000  0.00  0.00    -0.170 NA
ATOM     13  H   UNL     1       9.843   2.250   0.000  0.00  0.00    +0.150 HD
ATOM     14  C   UNL     1       8.544   4.500   0.000  0.00  0.00    +0.164 C 
ATOM     22  N   UNL     1       7.245   5.250   0.000  0.00  0.00    -0.326 N 
ATOM     23  H   UNL     1       7.245   6.750   0.000  0.00  0.00    +0.148 HD
ATOM     24  O   UNL     1       7.245   3.750   0.000  0.00  0.00    -0.153 OA
ATOM     25  C   UNL     1       5.946   4.500   0.000  0.00  0.00    +0.056 A 
ATOM     26  C   UNL     1       4.647   5.250   0.000  0.00  0.00    +0.047 A 
ATOM     27  C   UNL     1       3.348   4.500   0.000  0.00  0.00    +0.069 A 
ATOM     28 CL   UNL     1       2.049   5.250   0.000  0.00  0.00    -0.081 Cl
ENDROOT
BRANCH   7   2
ATOM      1  O   UNL     1       1.299   3.549   0.000  0.00  0.00    -0.153 OA
ATOM      2  S   UNL     1       2.049   2.250   0.000  0.00  0.00    +0.057 S 
ATOM      6  O   UNL     1       2.799   0.951   0.000  0.00  0.00    -0.153 OA
BRANCH   2   3
ATOM      3  N   UNL     1       0.750   1.500   0.000  0.00  0.00    -0.203 NA
ATOM      4  H   UNL     1       0.750   0.480   0.000  0.00  0.00    +0.144 HD
ATOM      5  H   UNL     1      -0.133   2.010   0.000  0.00  0.00    +0.144 HD
ENDBRANCH   2   3
ENDBRANCH   7   2
BRANCH  14  15
ATOM     15  C   UNL     1       9.843   5.250   0.000  0.00  0.00    +0.075 C 
BRANCH  15  16
ATOM     16  C   UNL     1      11.142   4.500   0.000  0.00  0.00    -0.044 A 
ATOM     17  C   UNL     1      11.142   3.000   0.000  0.00  0.00    +0.004 A 
ATOM     18  C   UNL     1      12.441   2.250   0.000  0.00  0.00    +0.000 A 
ATOM     19  C   UNL     1      13.740   3.000   0.000  0.00  0.00    +0.000 A 
ATOM     20  C   UNL     1      13.740   4.500   0.000  0.00  0.00    +0.000 A 
ATOM     21  C   UNL     1      12.441   5.250   0.000  0.00  0.00    +0.004 A 
ENDBRANCH  15  16
ENDBRANCH  14  15
TORSDOF 4