REMARK  Name = 241619
REMARK  7 active torsions:
REMARK  status: ('A' for Active; 'I' for Inactive)
REMARK    1  A    between atoms: C_2  and  N_16
REMARK    2  A    between atoms: C_5  and  O_7
REMARK    3  A    between atoms: C_6  and  N_19
REMARK    4  A    between atoms: O_7  and  C_20
REMARK    5  A    between atoms: N_10  and  C_21
REMARK    6  A    between atoms: N_10  and  C_22
REMARK    7  A    between atoms: C_11  and  C_22
REMARK                            x       y       z     vdW  Elec       q    Type
REMARK                         _______ _______ _______ _____ _____    ______ ____
ROOT
ATOM      7  N   UNL     1       2.850   5.109   0.000  0.00  0.00    -0.266 N 
ATOM      8  H   UNL     1       3.342   4.257   0.000  0.00  0.00    +0.156 HD
ATOM      9  C   UNL     1       3.600   6.409   0.000  0.00  0.00    +0.307 C 
ATOM     10  N   UNL     1       5.100   6.409   0.000  0.00  0.00    -0.281 N 
ATOM     17  C   UNL     1       5.850   5.109   0.000  0.00  0.00    +0.134 C 
ATOM     18  O   UNL     1       2.850   7.708   0.000  0.00  0.00    -0.252 OA
ENDROOT
BRANCH   7   6
ATOM      1  C   UNL     1      -1.650   5.109   0.000  0.00  0.00    +0.088 A 
ATOM      2  C   UNL     1      -0.900   3.810   0.000  0.00  0.00    +0.054 A 
ATOM      3  C   UNL     1       0.600   3.810   0.000  0.00  0.00    +0.142 A 
ATOM      6  C   UNL     1       1.350   5.109   0.000  0.00  0.00    +0.083 A 
ATOM     19  C   UNL     1       0.600   6.409   0.000  0.00  0.00    +0.111 A 
ATOM     20  C   UNL     1      -0.900   6.409   0.000  0.00  0.00    +0.275 A 
BRANCH  20  21
ATOM     21  N   UNL     1      -1.650   7.708   0.000  0.00  0.00    +0.080 N 
ATOM     22  O   UNL     1      -0.900   9.007   0.000  0.00  0.00    +0.041 OA
ATOM     23  O   UNL     1      -3.150   7.708   0.000  0.00  0.00    -0.576 OA
ENDBRANCH  20  21
BRANCH   3   4
ATOM      4  O   UNL     1       1.350   2.511   0.000  0.00  0.00    -0.493 OA
ATOM      5  C   UNL     1       2.850   2.511   0.000  0.00  0.00    +0.277 C 
ENDBRANCH   3   4
ENDBRANCH   7   6
BRANCH  10  11
ATOM     11  C   UNL     1       5.850   7.708   0.000  0.00  0.00    +0.183 C 
BRANCH  11  12
ATOM     12  C   UNL     1       5.100   9.007   0.000  0.00  0.00    +0.122 A 
ATOM     13  O   UNL     1       5.710  10.377   0.000  0.00  0.00    -0.466 OA
ATOM     14  C   UNL     1       4.595  11.381   0.000  0.00  0.00    +0.195 A 
ATOM     15  C   UNL     1       3.296  10.631   0.000  0.00  0.00    +0.041 A 
ATOM     16  C   UNL     1       3.608   9.163   0.000  0.00  0.00    +0.046 A 
ENDBRANCH  11  12
ENDBRANCH  10  11
TORSDOF 5