REMARK  Name = 26349
REMARK  8 active torsions:
REMARK  status: ('A' for Active; 'I' for Inactive)
REMARK    1  A    between atoms: C_1  and  C_14
REMARK    2  A    between atoms: C_2  and  O_17
REMARK    3  A    between atoms: C_5  and  C_15
REMARK    4  A    between atoms: C_5  and  C_16
REMARK    5  A    between atoms: C_10  and  C_18
REMARK    6  A    between atoms: C_12  and  C_20
REMARK    7  A    between atoms: O_17  and  C_18
REMARK    8  A    between atoms: C_20  and  O_22
REMARK                            x       y       z     vdW  Elec       q    Type
REMARK                         _______ _______ _______ _____ _____    ______ ____
ROOT
ATOM     12  C   UNL     1      -3.522  -4.399   0.000  0.00  0.00    +0.340 C 
ATOM     13  O   UNL     1      -4.821  -3.650   0.000  0.00  0.00    -0.245 OA
ENDROOT
BRANCH  12  14
ATOM     14  C   UNL     1      -2.223  -3.650   0.000  0.00  0.00    +0.073 A 
ATOM     15  C   UNL     1      -0.924  -4.399   0.000  0.00  0.00    +0.073 A 
ATOM     20  C   UNL     1       0.375  -3.650   0.000  0.00  0.00    +0.016 A 
ATOM     21  C   UNL     1       0.375  -2.150   0.000  0.00  0.00    +0.001 A 
ATOM     22  C   UNL     1      -0.924  -1.400   0.000  0.00  0.00    +0.001 A 
ATOM     23  C   UNL     1      -2.223  -2.150   0.000  0.00  0.00    +0.016 A 
BRANCH  15  16
ATOM     16  C   UNL     1      -0.924  -5.899   0.000  0.00  0.00    +0.338 C 
ATOM     19  O   UNL     1      -2.223  -6.649   0.000  0.00  0.00    -0.245 OA
BRANCH  16  17
ATOM     17  O   UNL     1       0.375  -6.649   0.000  0.00  0.00    -0.477 OA
ATOM     18  H   UNL     1       0.375  -7.586   0.000  0.00  0.00    +0.295 HD
ENDBRANCH  16  17
ENDBRANCH  15  16
ENDBRANCH  12  14
BRANCH  12  11
ATOM     11  O   UNL     1      -3.522  -5.899   0.000  0.00  0.00    -0.457 OA
BRANCH  11  10
ATOM      1  C   UNL     1      -6.120  -5.899   0.000  0.00  0.00    +0.006 C 
ATOM      2  C   UNL     1      -6.120  -4.399   0.000  0.00  0.00    +0.015 C 
ATOM      3  C   UNL     1      -7.419  -6.649   0.000  0.00  0.00    +0.010 C 
ATOM      4  C   UNL     1      -7.419  -8.149   0.000  0.00  0.00    +0.005 C 
ATOM      5  C   UNL     1      -6.120  -8.899   0.000  0.00  0.00    -0.001 C 
ATOM      6  C   UNL     1      -4.821  -8.149   0.000  0.00  0.00    +0.006 C 
ATOM      7  C   UNL     1      -3.344  -7.889   0.000  0.00  0.00    +0.015 C 
ATOM      8  C   UNL     1      -4.308  -9.559   0.000  0.00  0.00    +0.015 C 
ATOM      9  C   UNL     1      -5.254  -7.399   0.000  0.00  0.00    +0.014 C 
ATOM     10  C   UNL     1      -4.821  -6.649   0.000  0.00  0.00    +0.189 C 
ENDBRANCH  11  10
ENDBRANCH  12  11
TORSDOF 5