REMARK  Name = 240502
REMARK  4 active torsions:
REMARK  status: ('A' for Active; 'I' for Inactive)
REMARK    1  A    between atoms: C_5  and  N_7
REMARK    2  A    between atoms: C_5  and  C_11
REMARK    3  A    between atoms: C_9  and  C_14
REMARK    4  A    between atoms: C_11  and  O_13
REMARK                            x       y       z     vdW  Elec       q    Type
REMARK                         _______ _______ _______ _____ _____    ______ ____
ROOT
ATOM      1  C   UNL     1      -0.514   4.008   0.000  0.00  0.00    +0.003 C 
ATOM      2  C   UNL     1      -0.050   2.582   0.000  0.00  0.00    +0.003 C 
ATOM      3  C   UNL     1       1.450   2.582   0.000  0.00  0.00    +0.037 C 
ATOM      4  C   UNL     1       1.913   4.008   0.000  0.00  0.00    +0.131 C 
ATOM     15  C   UNL     1       0.700   4.890   0.000  0.00  0.00    +0.037 C 
ENDROOT
BRANCH   4   9
ATOM      9  N   UNL     1       2.663   5.307   0.000  0.00  0.00    -0.299 N 
ATOM     10  C   UNL     1       1.913   6.606   0.000  0.00  0.00    +0.229 C 
ATOM     13  O   UNL     1       2.663   7.905   0.000  0.00  0.00    -0.275 OA
ATOM     14  H   UNL     1       4.163   5.307   0.000  0.00  0.00    +0.150 HD
BRANCH  10  11
ATOM     11  C   UNL     1       0.413   6.606   0.000  0.00  0.00    +0.204 C 
ATOM     12 CL   UNL     1      -0.337   7.905   0.000  0.00  0.00    -0.116 Cl
ENDBRANCH  10  11
ENDBRANCH   4   9
BRANCH   4   5
ATOM      5  C   UNL     1       3.284   3.398   0.000  0.00  0.00    +0.328 C 
ATOM      8  O   UNL     1       4.497   4.280   0.000  0.00  0.00    -0.249 OA
BRANCH   5   6
ATOM      6  O   UNL     1       3.440   1.906   0.000  0.00  0.00    -0.479 OA
ATOM      7  H   UNL     1       2.682   1.356   0.000  0.00  0.00    +0.295 HD
ENDBRANCH   5   6
ENDBRANCH   4   5
TORSDOF 4