REMARK  Name = 25435
REMARK  5 active torsions:
REMARK  status: ('A' for Active; 'I' for Inactive)
REMARK    1  A    between atoms: O_1  and  C_8
REMARK    2  A    between atoms: O_1  and  P_21
REMARK    3  A    between atoms: C_11  and  O_22
REMARK    4  A    between atoms: C_16  and  P_21
REMARK    5  A    between atoms: P_21  and  O_22
REMARK                            x       y       z     vdW  Elec       q    Type
REMARK                         _______ _______ _______ _____ _____    ______ ____
ROOT
ATOM      2  P   UNL     1       3.666   3.515   0.000  0.00  0.00    +0.465 P 
ATOM     16  O   UNL     1       3.406   2.038   0.000  0.00  0.00    -0.228 OA
ENDROOT
BRANCH   2  10
ATOM     10  C   UNL     1       2.166   3.515   0.000  0.00  0.00    +0.088 A 
ATOM     11  C   UNL     1       1.416   2.216   0.000  0.00  0.00    +0.018 A 
ATOM     12  C   UNL     1      -0.084   2.216   0.000  0.00  0.00    +0.001 A 
ATOM     13  C   UNL     1      -0.834   3.515   0.000  0.00  0.00    +0.000 A 
ATOM     14  C   UNL     1      -0.084   4.814   0.000  0.00  0.00    +0.001 A 
ATOM     15  C   UNL     1       1.416   4.814   0.000  0.00  0.00    +0.018 A 
ENDBRANCH   2  10
BRANCH   2   1
ATOM      1  O   UNL     1       4.179   4.924   0.000  0.00  0.00    -0.412 OA
BRANCH   1  17
ATOM     17  C   UNL     1       3.215   6.074   0.000  0.00  0.00    +0.131 A 
ATOM     18  C   UNL     1       3.728   7.483   0.000  0.00  0.00    +0.046 A 
ATOM     19  C   UNL     1       2.764   8.632   0.000  0.00  0.00    +0.004 A 
ATOM     20  C   UNL     1       1.287   8.372   0.000  0.00  0.00    +0.000 A 
ATOM     21  C   UNL     1       0.773   6.962   0.000  0.00  0.00    +0.004 A 
ATOM     22  C   UNL     1       1.738   5.813   0.000  0.00  0.00    +0.046 A 
ENDBRANCH   1  17
ENDBRANCH   2   1
BRANCH   2   3
ATOM      3  O   UNL     1       5.143   3.254   0.000  0.00  0.00    -0.412 OA
BRANCH   3   4
ATOM      4  C   UNL     1       6.107   4.404   0.000  0.00  0.00    +0.131 A 
ATOM      5  C   UNL     1       7.585   4.143   0.000  0.00  0.00    +0.046 A 
ATOM      6  C   UNL     1       8.549   5.292   0.000  0.00  0.00    +0.004 A 
ATOM      7  C   UNL     1       8.036   6.702   0.000  0.00  0.00    +0.000 A 
ATOM      8  C   UNL     1       6.559   6.962   0.000  0.00  0.00    +0.004 A 
ATOM      9  C   UNL     1       5.594   5.813   0.000  0.00  0.00    +0.046 A 
ENDBRANCH   3   4
ENDBRANCH   2   3
TORSDOF 5