REMARK  Name = 23906
REMARK  4 active torsions:
REMARK  status: ('A' for Active; 'I' for Inactive)
REMARK    1  A    between atoms: N_8  and  C_10
REMARK    2  A    between atoms: C_10  and  C_11
REMARK    3  A    between atoms: C_11  and  C_12
REMARK    4  A    between atoms: C_12  and  C_13
REMARK                            x       y       z     vdW  Elec       q    Type
REMARK                         _______ _______ _______ _____ _____    ______ ____
ROOT
ATOM      1  C   UNL     1      -6.221   1.226   0.000  0.00  0.00    +0.216 A 
ATOM      2  N   UNL     1      -4.922   1.976   0.000  0.00  0.00    -0.327 N 
ATOM      3  H   UNL     1      -4.922   2.960   0.000  0.00  0.00    +0.145 HD
ATOM      4  H   UNL     1      -4.069   1.483   0.000  0.00  0.00    +0.145 HD
ATOM      5  N   UNL     1      -6.221  -0.275   0.000  0.00  0.00    -0.200 NA
ATOM      6  C   UNL     1      -7.520  -1.025   0.000  0.00  0.00    +0.125 A 
ATOM      7  N   UNL     1      -7.520  -2.525   0.000  0.00  0.00    -0.329 N 
ATOM     12  H   UNL     1      -8.819  -3.275   0.000  0.00  0.00    +0.147 HD
ATOM     13  C   UNL     1      -8.819  -0.275   0.000  0.00  0.00    +0.083 A 
ATOM     14  C   UNL     1      -8.819   1.226   0.000  0.00  0.00    +0.136 A 
ATOM     15 CL   UNL     1     -10.118   1.975   0.000  0.00  0.00    -0.062 Cl
ATOM     16  N   UNL     1      -7.520   1.976   0.000  0.00  0.00    -0.203 NA
ENDROOT
BRANCH   7   8
ATOM      8  C   UNL     1      -6.221  -3.275   0.000  0.00  0.00    +0.103 C 
BRANCH   8   9
ATOM      9  C   UNL     1      -4.922  -2.525   0.000  0.00  0.00    +0.018 C 
BRANCH   9  10
ATOM     10  C   UNL     1      -3.623  -3.275   0.000  0.00  0.00    -0.002 C 
ATOM     11  C   UNL     1      -2.324  -2.525   0.000  0.00  0.00    +0.004 C 
ENDBRANCH   9  10
ENDBRANCH   8   9
ENDBRANCH   7   8
TORSDOF 3