REMARK  Name = 23672
REMARK  1 active torsions:
REMARK  status: ('A' for Active; 'I' for Inactive)
REMARK    1  A    between atoms: C_7  and  N_16
REMARK                            x       y       z     vdW  Elec       q    Type
REMARK                         _______ _______ _______ _____ _____    ______ ____
ROOT
ATOM      1  H   UNL     1      -8.544  -0.750   0.000  0.00  0.00    +0.168 HD
ATOM      2  N   UNL     1      -8.544  -2.250   0.000  0.00  0.00    -0.334 N 
ATOM      3  C   UNL     1      -9.843  -3.000   0.000  0.00  0.00    +0.091 A 
ATOM      4  C   UNL     1      -9.843  -4.500   0.000  0.00  0.00    +0.089 A 
ATOM      5  C   UNL     1      -8.544  -5.250   0.000  0.00  0.00    +0.274 A 
ATOM      6  N   UNL     1      -7.245  -4.500   0.000  0.00  0.00    -0.177 NA
ATOM      7  O   UNL     1      -8.544  -6.750   0.000  0.00  0.00    -0.266 OA
ATOM      8  C   UNL     1      -7.245  -3.000   0.000  0.00  0.00    +0.201 A 
ATOM      9  N   UNL     1      -5.946  -2.250   0.000  0.00  0.00    -0.285 N 
ATOM     10  H   UNL     1      -5.946  -1.266   0.000  0.00  0.00    +0.155 HD
ENDROOT
BRANCH   9  11
ATOM     11  C   UNL     1      -4.647  -3.000   0.000  0.00  0.00    +0.034 A 
ATOM     12  C   UNL     1      -4.647  -4.500   0.000  0.00  0.00    +0.025 A 
ATOM     13  C   UNL     1      -3.348  -5.250   0.000  0.00  0.00    +0.022 A 
ATOM     14  C   UNL     1      -2.049  -4.500   0.000  0.00  0.00    +0.041 A 
ATOM     15  C   UNL     1      -2.049  -3.000   0.000  0.00  0.00    +0.022 A 
ATOM     16 CL   UNL     1      -0.750  -5.250   0.000  0.00  0.00    -0.084 Cl
ATOM     17  C   UNL     1      -3.348  -2.250   0.000  0.00  0.00    +0.025 A 
ENDBRANCH   9  11
TORSDOF 1