REMARK  Name = 246415
REMARK  0 active torsions:
REMARK  status: ('A' for Active; 'I' for Inactive)
REMARK                            x       y       z     vdW  Elec       q    Type
REMARK                         _______ _______ _______ _____ _____    ______ ____
ROOT
ATOM      1  C   UNL     1       1.674   1.400   0.000  0.00  0.00    +0.002 A 
ATOM      2  C   UNL     1       1.674  -0.101   0.000  0.00  0.00    +0.002 A 
ATOM      3  C   UNL     1       2.973  -0.851   0.000  0.00  0.00    +0.028 A 
ATOM      4  C   UNL     1       4.272  -0.101   0.000  0.00  0.00    +0.070 A 
ATOM      5  N   UNL     1       5.571  -0.851   0.000  0.00  0.00    -0.312 N 
ATOM      6  C   UNL     1       5.883  -2.318   0.000  0.00  0.00    +0.092 A 
ATOM      7  C   UNL     1       7.375  -2.474   0.000  0.00  0.00    +0.020 A 
ATOM      8  C   UNL     1       7.985  -1.104   0.000  0.00  0.00    +0.030 A 
ATOM      9  C   UNL     1       6.870  -0.100   0.000  0.00  0.00    +0.077 A 
ATOM     10  C   UNL     1       6.870   1.400   0.000  0.00  0.00    +0.109 A 
ATOM     11  S   UNL     1       8.169   2.150   0.000  0.00  0.00    -0.031 S 
ATOM     12  N   UNL     1       5.571   2.150   0.000  0.00  0.00    -0.346 N 
ATOM     13  H   UNL     1       5.571   3.650   0.000  0.00  0.00    +0.166 HD
ATOM     14  C   UNL     1       4.272   1.400   0.000  0.00  0.00    +0.064 A 
ATOM     15  C   UNL     1       2.973   2.150   0.000  0.00  0.00    +0.028 A 
ENDROOT
TORSDOF 0