REMARK  Name = 2561
REMARK  6 active torsions:
REMARK  status: ('A' for Active; 'I' for Inactive)
REMARK    1  A    between atoms: C_3  and  O_7
REMARK    2  A    between atoms: C_4  and  O_8
REMARK    3  A    between atoms: C_5  and  O_9
REMARK    4  A    between atoms: C_6  and  O_10
REMARK    5  A    between atoms: O_10  and  C_11
REMARK    6  A    between atoms: C_11  and  C_12
REMARK                            x       y       z     vdW  Elec       q    Type
REMARK                         _______ _______ _______ _____ _____    ______ ____
ROOT
ATOM      1  O   UNL     1      -4.647   4.500   0.000  0.00  0.00    -0.346 OA
ATOM      2  C   UNL     1      -3.348   5.250   0.000  0.00  0.00    +0.282 C 
ATOM     11  C   UNL     1      -2.049   4.500   0.000  0.00  0.00    +0.201 C 
ATOM     14  C   UNL     1      -2.049   3.000   0.000  0.00  0.00    +0.178 C 
ATOM     17  C   UNL     1      -3.348   2.250   0.000  0.00  0.00    +0.171 C 
ATOM     20  C   UNL     1      -4.647   3.000   0.000  0.00  0.00    +0.197 C 
ENDROOT
BRANCH  11  12
ATOM     12  O   UNL     1      -3.348   3.750   0.000  0.00  0.00    -0.384 OA
ATOM     13  H   UNL     1      -4.188   4.235   0.000  0.00  0.00    +0.210 HD
ENDBRANCH  11  12
BRANCH  14  15
ATOM     15  O   UNL     1      -0.750   2.250   0.000  0.00  0.00    -0.386 OA
ATOM     16  H   UNL     1      -0.750   1.280   0.000  0.00  0.00    +0.210 HD
ENDBRANCH  14  15
BRANCH  17  18
ATOM     18  O   UNL     1      -3.348   0.750   0.000  0.00  0.00    -0.387 OA
ATOM     19  H   UNL     1      -4.188   0.265   0.000  0.00  0.00    +0.210 HD
ENDBRANCH  17  18
BRANCH   2   3
ATOM      3  O   UNL     1      -3.348   6.750   0.000  0.00  0.00    -0.344 OA
BRANCH   3   4
ATOM      4  C   UNL     1      -4.647   7.500   0.000  0.00  0.00    +0.198 C 
BRANCH   4   5
ATOM      5  C   UNL     1      -4.647   9.000   0.000  0.00  0.00    -0.022 A 
ATOM      6  C   UNL     1      -3.348   9.750   0.000  0.00  0.00    +0.006 A 
ATOM      7  C   UNL     1      -3.348  11.250   0.000  0.00  0.00    +0.000 A 
ATOM      8  C   UNL     1      -4.647  12.000   0.000  0.00  0.00    +0.000 A 
ATOM      9  C   UNL     1      -5.946  11.250   0.000  0.00  0.00    +0.000 A 
ATOM     10  C   UNL     1      -5.946   9.750   0.000  0.00  0.00    +0.006 A 
ENDBRANCH   4   5
ENDBRANCH   3   4
ENDBRANCH   2   3
TORSDOF 6