REMARK  Name = 241624
REMARK  8 active torsions:
REMARK  status: ('A' for Active; 'I' for Inactive)
REMARK    1  A    between atoms: C_1  and  C_18
REMARK    2  A    between atoms: C_6  and  C_7
REMARK    3  A    between atoms: C_9  and  N_22
REMARK    4  A    between atoms: C_14  and  S_17
REMARK    5  A    between atoms: S_17  and  N_23
REMARK    6  A    between atoms: C_18  and  C_19
REMARK    7  A    between atoms: C_18  and  C_20
REMARK    8  A    between atoms: C_18  and  C_21
REMARK                            x       y       z     vdW  Elec       q    Type
REMARK                         _______ _______ _______ _____ _____    ______ ____
ROOT
ATOM      9  C   UNL     1       8.250   3.549   0.000  0.00  0.00    +0.248 C 
ATOM     10  N   UNL     1       9.000   2.250   0.000  0.00  0.00    -0.282 N 
ATOM     11  H   UNL     1       8.508   1.397   0.000  0.00  0.00    +0.155 HD
ATOM     24  O   UNL     1       9.000   4.848   0.000  0.00  0.00    -0.270 OA
ENDROOT
BRANCH   9   8
ATOM      1  C   UNL     1       3.750   3.549   0.000  0.00  0.00    -0.042 A 
ATOM      6  C   UNL     1       4.500   2.250   0.000  0.00  0.00    +0.005 A 
ATOM      7  C   UNL     1       6.000   2.250   0.000  0.00  0.00    +0.013 A 
ATOM      8  C   UNL     1       6.750   3.549   0.000  0.00  0.00    +0.037 A 
ATOM     25  C   UNL     1       6.000   4.848   0.000  0.00  0.00    +0.013 A 
ATOM     26  C   UNL     1       4.500   4.848   0.000  0.00  0.00    +0.005 A 
BRANCH   1   2
ATOM      2  C   UNL     1       2.250   3.549   0.000  0.00  0.00    -0.013 C 
ATOM      3  C   UNL     1       2.250   2.049   0.000  0.00  0.00    +0.015 C 
ATOM      4  C   UNL     1       0.750   3.549   0.000  0.00  0.00    +0.015 C 
ATOM      5  C   UNL     1       2.250   5.049   0.000  0.00  0.00    +0.015 C 
ENDBRANCH   1   2
ENDBRANCH   9   8
BRANCH  10  12
ATOM     12  C   UNL     1      10.500   2.250   0.000  0.00  0.00    +0.034 A 
ATOM     13  C   UNL     1      11.250   0.951   0.000  0.00  0.00    +0.025 A 
ATOM     14  C   UNL     1      12.750   0.951   0.000  0.00  0.00    +0.030 A 
ATOM     15  C   UNL     1      13.500   2.250   0.000  0.00  0.00    +0.105 A 
ATOM     22  C   UNL     1      12.750   3.549   0.000  0.00  0.00    +0.030 A 
ATOM     23  C   UNL     1      11.250   3.549   0.000  0.00  0.00    +0.025 A 
BRANCH  15  16
ATOM     16  S   UNL     1      15.000   2.250   0.000  0.00  0.00    +0.056 S 
ATOM     20  O   UNL     1      15.000   0.750   0.000  0.00  0.00    -0.153 OA
ATOM     21  O   UNL     1      15.000   3.750   0.000  0.00  0.00    -0.153 OA
BRANCH  16  17
ATOM     17  N   UNL     1      16.500   2.250   0.000  0.00  0.00    -0.204 NA
ATOM     18  H   UNL     1      17.010   3.133   0.000  0.00  0.00    +0.144 HD
ATOM     19  H   UNL     1      17.010   1.367   0.000  0.00  0.00    +0.144 HD
ENDBRANCH  16  17
ENDBRANCH  15  16
ENDBRANCH  10  12
TORSDOF 5