REMARK  Name = 241621
REMARK  5 active torsions:
REMARK  status: ('A' for Active; 'I' for Inactive)
REMARK    1  A    between atoms: N_1  and  S_2
REMARK    2  A    between atoms: N_1  and  C_12
REMARK    3  A    between atoms: N_1  and  C_13
REMARK    4  A    between atoms: S_2  and  N_14
REMARK    5  A    between atoms: C_5  and  N_14
REMARK                            x       y       z     vdW  Elec       q    Type
REMARK                         _______ _______ _______ _____ _____    ______ ____
ROOT
ATOM      5  N   UNL     1       4.674  -1.198   0.000  0.00  0.00    -0.206 N 
ATOM      6  H   UNL     1       4.182  -2.051   0.000  0.00  0.00    +0.175 HD
ENDROOT
BRANCH   5   7
ATOM      7  C   UNL     1       6.174  -1.198   0.000  0.00  0.00    +0.050 A 
ATOM      8  C   UNL     1       6.924  -2.498   0.000  0.00  0.00    +0.039 A 
ATOM      9  C   UNL     1       8.424  -2.498   0.000  0.00  0.00    +0.020 A 
ATOM     10 BR   UNL     1       9.174  -3.797   0.000  0.00  0.00    -0.050 Br
ATOM     11  C   UNL     1       9.174  -1.198   0.000  0.00  0.00    +0.015 A 
ATOM     12  C   UNL     1       8.424   0.101   0.000  0.00  0.00    +0.003 A 
ATOM     13  C   UNL     1       6.924   0.101   0.000  0.00  0.00    +0.024 A 
ENDBRANCH   5   7
BRANCH   5   4
ATOM      4  S   UNL     1       3.924   0.101   0.000  0.00  0.00    +0.111 S 
ATOM     14  O   UNL     1       2.625  -0.649   0.000  0.00  0.00    -0.138 OA
ATOM     15  O   UNL     1       5.223   0.851   0.000  0.00  0.00    -0.138 OA
BRANCH   4   1
ATOM      1  N   UNL     1       3.174   1.400   0.000  0.00  0.00    -0.170 NA
ATOM      2  C   UNL     1       1.674   1.400   0.000  0.00  0.00    +0.132 C 
ATOM      3  C   UNL     1       3.924   2.699   0.000  0.00  0.00    +0.132 C 
ENDBRANCH   4   1
ENDBRANCH   5   4
TORSDOF 3