REMARK  Name = 255025
REMARK  2 active torsions:
REMARK  status: ('A' for Active; 'I' for Inactive)
REMARK    1  A    between atoms: N_8  and  C_15
REMARK    2  A    between atoms: C_9  and  C_15
REMARK                            x       y       z     vdW  Elec       q    Type
REMARK                         _______ _______ _______ _____ _____    ______ ____
ROOT
ATOM      1  O   UNL     1       3.689   2.962   0.000  0.00  0.00    -0.174 OA
ATOM      2  S   UNL     1       3.429   1.484   0.000  0.00  0.00    -0.029 S 
ATOM      3  C   UNL     1       2.679   0.185   0.000  0.00  0.00    +0.181 C 
ATOM      4  C   UNL     1       3.429  -1.114   0.000  0.00  0.00    +0.107 C 
ATOM      5  N   UNL     1       4.929  -1.114   0.000  0.00  0.00    -0.294 NA
ATOM     13  C   UNL     1       5.679   0.186   0.000  0.00  0.00    +0.107 C 
ATOM     14  C   UNL     1       4.929   1.484   0.000  0.00  0.00    +0.181 C 
ATOM     15  O   UNL     1       2.019   1.998   0.000  0.00  0.00    -0.174 OA
ENDROOT
BRANCH   5   6
ATOM      6  C   UNL     1       5.679  -2.413   0.000  0.00  0.00    +0.140 C 
BRANCH   6   7
ATOM      7  C   UNL     1       7.179  -2.413   0.000  0.00  0.00    +0.055 A 
ATOM      8  N   UNL     1       7.929  -3.712   0.000  0.00  0.00    -0.259 NA
ATOM      9  C   UNL     1       9.429  -3.712   0.000  0.00  0.00    +0.111 A 
ATOM     10  C   UNL     1      10.179  -2.413   0.000  0.00  0.00    +0.020 A 
ATOM     11  C   UNL     1       9.429  -1.114   0.000  0.00  0.00    +0.003 A 
ATOM     12  C   UNL     1       7.929  -1.114   0.000  0.00  0.00    +0.024 A 
ENDBRANCH   6   7
ENDBRANCH   5   6
TORSDOF 2