REMARK  Name = 238929
REMARK  1 active torsions:
REMARK  status: ('A' for Active; 'I' for Inactive)
REMARK    1  A    between atoms: C_7  and  C_10
REMARK                            x       y       z     vdW  Elec       q    Type
REMARK                         _______ _______ _______ _____ _____    ______ ____
ROOT
ATOM      7  C   UNL     1       6.750   3.348   0.000  0.00  0.00    +0.251 C 
ATOM      8  N   UNL     1       7.500   2.049   0.000  0.00  0.00    -0.266 N 
ATOM      9  H   UNL     1       7.008   1.196   0.000  0.00  0.00    +0.157 HD
ATOM     10  C   UNL     1       9.000   2.049   0.000  0.00  0.00    +0.134 A 
ATOM     11  C   UNL     1       9.882   0.836   0.000  0.00  0.00    +0.053 A 
ATOM     12  C   UNL     1      11.308   1.299   0.000  0.00  0.00    +0.068 A 
ATOM     13  S   UNL     1      11.308   2.799   0.000  0.00  0.00    +0.005 S 
ATOM     14  N   UNL     1       9.882   3.263   0.000  0.00  0.00    -0.195 NA
ATOM     15  O   UNL     1       7.500   4.647   0.000  0.00  0.00    -0.270 OA
ENDROOT
BRANCH   7   6
ATOM      1 CL   UNL     1       0.750   3.348   0.000  0.00  0.00    -0.083 Cl
ATOM      2  C   UNL     1       2.250   3.348   0.000  0.00  0.00    +0.042 A 
ATOM      3  C   UNL     1       3.000   2.049   0.000  0.00  0.00    +0.040 A 
ATOM      4  C   UNL     1       4.500   2.049   0.000  0.00  0.00    +0.054 A 
ATOM      5 CL   UNL     1       5.250   0.750   0.000  0.00  0.00    -0.083 Cl
ATOM      6  C   UNL     1       5.250   3.348   0.000  0.00  0.00    +0.055 A 
ATOM     16  C   UNL     1       4.500   4.647   0.000  0.00  0.00    +0.016 A 
ATOM     17  C   UNL     1       3.000   4.647   0.000  0.00  0.00    +0.021 A 
ENDBRANCH   7   6
TORSDOF 1