REMARK  Name = 22881
REMARK  5 active torsions:
REMARK  status: ('A' for Active; 'I' for Inactive)
REMARK    1  A    between atoms: C_3  and  C_20
REMARK    2  A    between atoms: C_4  and  C_5
REMARK    3  A    between atoms: C_9  and  C_11
REMARK    4  A    between atoms: C_15  and  C_17
REMARK    5  A    between atoms: C_18  and  C_19
REMARK                            x       y       z     vdW  Elec       q    Type
REMARK                         _______ _______ _______ _____ _____    ______ ____
ROOT
ATOM      5  C   UNL     1      -9.194  -7.674   0.000  0.00  0.00    -0.016 A 
ATOM      6  C   UNL     1      -7.895  -8.424   0.000  0.00  0.00    +0.007 A 
ATOM      7  C   UNL     1      -6.596  -7.674   0.000  0.00  0.00    +0.009 A 
ATOM      8  C   UNL     1      -6.596  -6.174   0.000  0.00  0.00    -0.018 A 
ATOM      9  C   UNL     1      -7.895  -5.424   0.000  0.00  0.00    +0.009 A 
ATOM     20  C   UNL     1      -9.194  -6.174   0.000  0.00  0.00    +0.007 A 
ENDROOT
BRANCH   8  10
ATOM     10  C   UNL     1      -5.297  -5.424   0.000  0.00  0.00    -0.018 A 
ATOM     11  C   UNL     1      -3.998  -6.174   0.000  0.00  0.00    +0.009 A 
ATOM     12  C   UNL     1      -2.699  -5.424   0.000  0.00  0.00    +0.007 A 
ATOM     13  C   UNL     1      -2.699  -3.924   0.000  0.00  0.00    -0.016 A 
ATOM     14  C   UNL     1      -3.998  -3.174   0.000  0.00  0.00    +0.007 A 
ATOM     19  C   UNL     1      -5.297  -3.924   0.000  0.00  0.00    +0.009 A 
BRANCH  13  15
ATOM     15  C   UNL     1      -1.400  -3.174   0.000  0.00  0.00    +0.177 C 
ATOM     16  C   UNL     1       0.101  -3.174   0.000  0.00  0.00    +0.149 C 
ATOM     17  C   UNL     1       1.400  -3.924   0.000  0.00  0.00    +0.041 C 
ATOM     18  O   UNL     1      -0.649  -1.875   0.000  0.00  0.00    -0.364 OA
ENDBRANCH  13  15
ENDBRANCH   8  10
BRANCH   5   4
ATOM      1  O   UNL     1     -11.993  -8.424   0.000  0.00  0.00    -0.364 OA
ATOM      2  C   UNL     1     -11.243  -9.723   0.000  0.00  0.00    +0.149 C 
ATOM      3  C   UNL     1     -11.243 -11.223   0.000  0.00  0.00    +0.041 C 
ATOM      4  C   UNL     1     -10.493  -8.424   0.000  0.00  0.00    +0.177 C 
ENDBRANCH   5   4
TORSDOF 3