REMARK  Name = 261037
REMARK  6 active torsions:
REMARK  status: ('A' for Active; 'I' for Inactive)
REMARK    1  A    between atoms: N_2  and  C_9
REMARK    2  A    between atoms: C_9  and  C_10
REMARK    3  A    between atoms: C_10  and  O_11
REMARK    4  A    between atoms: C_10  and  C_12
REMARK    5  A    between atoms: C_12  and  O_13
REMARK    6  A    between atoms: O_13  and  C_14
REMARK                            x       y       z     vdW  Elec       q    Type
REMARK                         _______ _______ _______ _____ _____    ______ ____
ROOT
ATOM      1  N   UNL     1      -3.035   0.180   0.000  0.00  0.00    -0.172 NA
ATOM      2  C   UNL     1      -2.453   1.563   0.000  0.00  0.00    +0.137 A 
ATOM      3  C   UNL     1      -0.959   1.437   0.000  0.00  0.00    +0.113 A 
ATOM      4  N   UNL     1      -0.616  -0.023   0.000  0.00  0.00    -0.269 N 
ATOM     12  C   UNL     1      -1.900  -0.800   0.000  0.00  0.00    +0.450 A 
ATOM     13  N   UNL     1      -2.025  -2.295   0.000  0.00  0.00    +0.120 N 
ATOM     14  O   UNL     1      -3.383  -2.933   0.000  0.00  0.00    +0.045 OA
ATOM     15  O   UNL     1      -0.794  -3.151   0.000  0.00  0.00    -0.573 OA
ENDROOT
BRANCH   4   5
ATOM      5  C   UNL     1       0.766  -0.605   0.000  0.00  0.00    +0.162 C 
BRANCH   5   6
ATOM      6  C   UNL     1       1.961   0.302   0.000  0.00  0.00    +0.160 C 
BRANCH   6  10
ATOM     10  O   UNL     1       3.344  -0.279   0.000  0.00  0.00    -0.388 OA
ATOM     11  H   UNL     1       3.465  -1.242   0.000  0.00  0.00    +0.210 HD
ENDBRANCH   6  10
BRANCH   6   7
ATOM      7  C   UNL     1       1.773   1.790   0.000  0.00  0.00    +0.192 C 
BRANCH   7   8
ATOM      8  O   UNL     1       2.968   2.697   0.000  0.00  0.00    -0.380 OA
ATOM      9  C   UNL     1       4.351   2.116   0.000  0.00  0.00    +0.194 C 
ENDBRANCH   7   8
ENDBRANCH   6   7
ENDBRANCH   5   6
ENDBRANCH   4   5
TORSDOF 5