REMARK  Name = 24032
REMARK  4 active torsions:
REMARK  status: ('A' for Active; 'I' for Inactive)
REMARK    1  A    between atoms: C_6  and  N_24
REMARK    2  A    between atoms: C_7  and  N_24
REMARK    3  A    between atoms: C_16  and  N_23
REMARK    4  A    between atoms: C_17  and  N_23
REMARK                            x       y       z     vdW  Elec       q    Type
REMARK                         _______ _______ _______ _____ _____    ______ ____
ROOT
ATOM      7  C   UNL     1       6.221  -3.275   0.000  0.00  0.00    +0.039 A 
ATOM      8  C   UNL     1       6.221  -4.774   0.000  0.00  0.00    +0.005 A 
ATOM      9  C   UNL     1       4.922  -5.524   0.000  0.00  0.00    +0.010 A 
ATOM     10  C   UNL     1       4.922  -7.024   0.000  0.00  0.00    +0.002 A 
ATOM     11  C   UNL     1       6.221  -7.774   0.000  0.00  0.00    +0.024 A 
ATOM     12  C   UNL     1       7.520  -7.024   0.000  0.00  0.00    +0.039 A 
ATOM     21  C   UNL     1       7.520  -5.524   0.000  0.00  0.00    +0.005 A 
ATOM     22  C   UNL     1       8.819  -4.774   0.000  0.00  0.00    +0.010 A 
ATOM     23  C   UNL     1       8.819  -3.275   0.000  0.00  0.00    +0.002 A 
ATOM     24  C   UNL     1       7.520  -2.525   0.000  0.00  0.00    +0.024 A 
ENDROOT
BRANCH   7   5
ATOM      5  N   UNL     1       4.922  -2.525   0.000  0.00  0.00    -0.314 N 
ATOM      6  H   UNL     1       4.069  -3.017   0.000  0.00  0.00    +0.152 HD
BRANCH   5   4
ATOM      1  C   UNL     1       4.922   1.976   0.000  0.00  0.00    +0.000 A 
ATOM      2  C   UNL     1       3.623   1.226   0.000  0.00  0.00    +0.002 A 
ATOM      3  C   UNL     1       3.623  -0.275   0.000  0.00  0.00    +0.023 A 
ATOM      4  C   UNL     1       4.922  -1.025   0.000  0.00  0.00    +0.031 A 
ATOM     25  C   UNL     1       6.221  -0.275   0.000  0.00  0.00    +0.023 A 
ATOM     26  C   UNL     1       6.221   1.226   0.000  0.00  0.00    +0.002 A 
ENDBRANCH   5   4
ENDBRANCH   7   5
BRANCH  12  13
ATOM     13  N   UNL     1       8.819  -7.774   0.000  0.00  0.00    -0.314 N 
ATOM     14  H   UNL     1       8.819  -8.759   0.000  0.00  0.00    +0.152 HD
BRANCH  13  15
ATOM     15  C   UNL     1      10.118  -7.024   0.000  0.00  0.00    +0.031 A 
ATOM     16  C   UNL     1      11.417  -7.774   0.000  0.00  0.00    +0.023 A 
ATOM     17  C   UNL     1      12.716  -7.024   0.000  0.00  0.00    +0.002 A 
ATOM     18  C   UNL     1      12.716  -5.524   0.000  0.00  0.00    +0.000 A 
ATOM     19  C   UNL     1      11.417  -4.774   0.000  0.00  0.00    +0.002 A 
ATOM     20  C   UNL     1      10.118  -5.524   0.000  0.00  0.00    +0.023 A 
ENDBRANCH  13  15
ENDBRANCH  12  13
TORSDOF 4