REMARK  Name = 24035
REMARK  3 active torsions:
REMARK  status: ('A' for Active; 'I' for Inactive)
REMARK    1  A    between atoms: C_3  and  N_13
REMARK    2  A    between atoms: C_8  and  N_13
REMARK    3  A    between atoms: C_11  and  N_14
REMARK                            x       y       z     vdW  Elec       q    Type
REMARK                         _______ _______ _______ _____ _____    ______ ____
ROOT
ATOM      5  C   UNL     1       5.471   5.524   0.000  0.00  0.00    +0.031 A 
ATOM      6  C   UNL     1       5.471   4.024   0.000  0.00  0.00    +0.025 A 
ATOM      7  C   UNL     1       4.172   3.275   0.000  0.00  0.00    +0.025 A 
ATOM      8  C   UNL     1       2.873   4.024   0.000  0.00  0.00    +0.035 A 
ATOM     16  C   UNL     1       2.873   5.524   0.000  0.00  0.00    +0.025 A 
ATOM     17  C   UNL     1       4.172   6.274   0.000  0.00  0.00    +0.025 A 
ENDROOT
BRANCH   8   9
ATOM      9  N   UNL     1       1.574   3.275   0.000  0.00  0.00    -0.270 N 
ATOM     10  H   UNL     1       1.574   2.290   0.000  0.00  0.00    +0.156 HD
ATOM     11  C   UNL     1       0.275   4.024   0.000  0.00  0.00    +0.301 C 
ATOM     12  N   UNL     1       0.275   5.524   0.000  0.00  0.00    -0.313 N 
ATOM     13  H   UNL     1      -0.578   6.017   0.000  0.00  0.00    +0.146 HD
ATOM     14  H   UNL     1       1.127   6.017   0.000  0.00  0.00    +0.146 HD
ATOM     15  O   UNL     1      -1.025   3.275   0.000  0.00  0.00    -0.253 OA
ENDBRANCH   8   9
BRANCH   5   3
ATOM      3  N   UNL     1       6.770   6.274   0.000  0.00  0.00    -0.314 N 
ATOM      4  H   UNL     1       7.622   5.782   0.000  0.00  0.00    +0.152 HD
BRANCH   3   2
ATOM      1  C   UNL     1       5.471   8.524   0.000  0.00  0.00    +0.023 A 
ATOM      2  C   UNL     1       6.770   7.774   0.000  0.00  0.00    +0.031 A 
ATOM     18  C   UNL     1       8.069   8.524   0.000  0.00  0.00    +0.023 A 
ATOM     19  C   UNL     1       8.069  10.025   0.000  0.00  0.00    +0.002 A 
ATOM     20  C   UNL     1       6.770  10.775   0.000  0.00  0.00    +0.000 A 
ATOM     21  C   UNL     1       5.471  10.025   0.000  0.00  0.00    +0.002 A 
ENDBRANCH   3   2
ENDBRANCH   5   3
TORSDOF 3