REMARK  Name = 242557
REMARK  12 active torsions:
REMARK  status: ('A' for Active; 'I' for Inactive)
REMARK    1  A    between atoms: C_1  and  O_12
REMARK    2  A    between atoms: C_2  and  C_17
REMARK    3  A    between atoms: C_3  and  C_13
REMARK    4  A    between atoms: C_6  and  C_21
REMARK    5  A    between atoms: C_7  and  C_8
REMARK    6  A    between atoms: C_7  and  C_9
REMARK    7  A    between atoms: C_13  and  C_14
REMARK    8  A    between atoms: C_13  and  C_15
REMARK    9  A    between atoms: C_13  and  C_16
REMARK   10  A    between atoms: C_17  and  C_18
REMARK   11  A    between atoms: C_17  and  C_19
REMARK   12  A    between atoms: C_17  and  C_20
REMARK                            x       y       z     vdW  Elec       q    Type
REMARK                         _______ _______ _______ _____ _____    ______ ____
ROOT
ATOM      1  C   UNL     1       0.750   5.397   0.000  0.00  0.00    +0.124 A 
ATOM      4  C   UNL     1       1.500   4.098   0.000  0.00  0.00    +0.000 A 
ATOM      9  C   UNL     1       3.000   4.098   0.000  0.00  0.00    +0.015 A 
ATOM     10  C   UNL     1       3.750   5.397   0.000  0.00  0.00    -0.022 A 
ATOM     17  C   UNL     1       3.000   6.696   0.000  0.00  0.00    +0.015 A 
ATOM     18  C   UNL     1       1.500   6.696   0.000  0.00  0.00    +0.000 A 
ENDROOT
BRANCH   4   5
ATOM      5  C   UNL     1       0.750   2.799   0.000  0.00  0.00    -0.009 C 
ATOM      6  C   UNL     1       2.049   2.049   0.000  0.00  0.00    +0.015 C 
ATOM      7  C   UNL     1       0.000   1.500   0.000  0.00  0.00    +0.015 C 
ATOM      8  C   UNL     1      -0.549   3.549   0.000  0.00  0.00    +0.015 C 
ENDBRANCH   4   5
BRANCH  18  19
ATOM     19  C   UNL     1       0.750   7.995   0.000  0.00  0.00    -0.009 C 
ATOM     20  C   UNL     1       2.049   8.745   0.000  0.00  0.00    +0.015 C 
ATOM     21  C   UNL     1       0.000   9.294   0.000  0.00  0.00    +0.015 C 
ATOM     22  C   UNL     1      -0.549   7.245   0.000  0.00  0.00    +0.015 C 
ENDBRANCH  18  19
BRANCH   1   2
ATOM      2  O   UNL     1      -0.750   5.397   0.000  0.00  0.00    -0.506 OA
ATOM      3  H   UNL     1      -1.219   6.209   0.000  0.00  0.00    +0.292 HD
ENDBRANCH   1   2
BRANCH  10  11
ATOM     11  C   UNL     1       5.250   5.397   0.000  0.00  0.00    +0.038 C 
ATOM     12  C   UNL     1       6.000   6.696   0.000  0.00  0.00    +0.129 C 
BRANCH  12  13
ATOM     13  C   UNL     1       7.500   6.696   0.000  0.00  0.00    +0.110 C 
ATOM     14  N   UNL     1       9.000   6.696   0.000  0.00  0.00    -0.190 NA
ENDBRANCH  12  13
BRANCH  12  15
ATOM     15  C   UNL     1       5.250   7.995   0.000  0.00  0.00    +0.110 C 
ATOM     16  N   UNL     1       4.500   9.294   0.000  0.00  0.00    -0.190 NA
ENDBRANCH  12  15
ENDBRANCH  10  11
TORSDOF 6