REMARK  Name = 260594
REMARK  7 active torsions:
REMARK  status: ('A' for Active; 'I' for Inactive)
REMARK    1  A    between atoms: N_1  and  C_34
REMARK    2  A    between atoms: N_2  and  C_17
REMARK    3  A    between atoms: N_3  and  C_24
REMARK    4  A    between atoms: N_4  and  C_38
REMARK    5  A    between atoms: C_8  and  N_31
REMARK    6  A    between atoms: C_16  and  C_35
REMARK    7  A    between atoms: C_21  and  N_37
REMARK                            x       y       z     vdW  Elec       q    Type
REMARK                         _______ _______ _______ _____ _____    ______ ____
ROOT
ATOM     15  C   UNL     1     -17.637  -0.750   0.000  0.00  0.00    +0.065 A 
ATOM     16  C   UNL     1     -16.339  -1.500   0.000  0.00  0.00    +0.028 A 
ATOM     17  C   UNL     1     -15.039  -0.750   0.000  0.00  0.00    +0.015 A 
ATOM     18  C   UNL     1     -15.039   0.750   0.000  0.00  0.00    +0.037 A 
ATOM     37  C   UNL     1     -16.339   1.500   0.000  0.00  0.00    +0.015 A 
ATOM     38  C   UNL     1     -17.637   0.750   0.000  0.00  0.00    +0.028 A 
ENDROOT
BRANCH  15  14
ATOM      1  N   UNL     1     -22.834   0.750   0.000  0.00  0.00    -0.350 N 
ATOM      2  C   UNL     1     -24.133   1.500   0.000  0.00  0.00    +0.149 C 
ATOM      3  C   UNL     1     -21.535   1.500   0.000  0.00  0.00    +0.088 A 
ATOM      4  C   UNL     1     -20.236   0.750   0.000  0.00  0.00    +0.046 A 
ATOM      5  C   UNL     1     -20.236  -0.750   0.000  0.00  0.00    +0.075 A 
ATOM      6  C   UNL     1     -21.535  -1.500   0.000  0.00  0.00    +0.030 A 
ATOM      7  C   UNL     1     -21.535  -3.000   0.000  0.00  0.00    +0.096 A 
ATOM      8  C   UNL     1     -22.834  -3.750   0.000  0.00  0.00    +0.274 A 
ATOM     12  C   UNL     1     -24.133  -3.000   0.000  0.00  0.00    +0.086 A 
ATOM     13  C   UNL     1     -24.133  -1.500   0.000  0.00  0.00    +0.033 A 
ATOM     14  N   UNL     1     -18.936  -1.500   0.000  0.00  0.00    -0.247 NA
ATOM     39  C   UNL     1     -22.834  -0.750   0.000  0.00  0.00    +0.051 A 
BRANCH   8   9
ATOM      9  N   UNL     1     -22.834  -5.250   0.000  0.00  0.00    +0.080 N 
ATOM     10  O   UNL     1     -21.535  -6.000   0.000  0.00  0.00    +0.041 OA
ATOM     11  O   UNL     1     -24.133  -6.000   0.000  0.00  0.00    -0.576 OA
ENDBRANCH   8   9
ENDBRANCH  15  14
BRANCH  18  19
ATOM     19  C   UNL     1     -13.740   1.500   0.000  0.00  0.00    +0.248 C 
ATOM     20  N   UNL     1     -12.441   0.750   0.000  0.00  0.00    -0.282 N 
ATOM     21  H   UNL     1     -12.441  -0.234   0.000  0.00  0.00    +0.155 HD
ATOM     36  O   UNL     1     -13.740   3.000   0.000  0.00  0.00    -0.270 OA
BRANCH  20  22
ATOM     22  C   UNL     1     -11.142   1.500   0.000  0.00  0.00    +0.034 A 
ATOM     23  C   UNL     1      -9.843   0.750   0.000  0.00  0.00    +0.025 A 
ATOM     24  C   UNL     1      -8.544   1.500   0.000  0.00  0.00    +0.029 A 
ATOM     25  C   UNL     1      -8.544   3.000   0.000  0.00  0.00    +0.065 A 
ATOM     26  C   UNL     1      -9.843   3.750   0.000  0.00  0.00    +0.029 A 
ATOM     35  C   UNL     1     -11.142   3.000   0.000  0.00  0.00    +0.025 A 
BRANCH  25  27
ATOM     27  N   UNL     1      -7.245   3.750   0.000  0.00  0.00    -0.248 NA
ATOM     28  C   UNL     1      -5.946   3.000   0.000  0.00  0.00    +0.067 A 
ATOM     29  C   UNL     1      -5.946   1.500   0.000  0.00  0.00    +0.045 A 
ATOM     30  C   UNL     1      -4.647   0.750   0.000  0.00  0.00    +0.087 A 
ATOM     31  N   UNL     1      -3.348   1.500   0.000  0.00  0.00    -0.356 N 
ATOM     32  C   UNL     1      -2.049   0.750   0.000  0.00  0.00    +0.148 C 
ATOM     33  C   UNL     1      -3.348   3.000   0.000  0.00  0.00    +0.087 A 
ATOM     34  C   UNL     1      -4.647   3.750   0.000  0.00  0.00    +0.045 A 
ENDBRANCH  25  27
ENDBRANCH  20  22
ENDBRANCH  18  19
TORSDOF 5