REMARK  Name = 252359
REMARK  4 active torsions:
REMARK  status: ('A' for Active; 'I' for Inactive)
REMARK    1  A    between atoms: C_1  and  C_23
REMARK    2  A    between atoms: C_6  and  N_7
REMARK    3  A    between atoms: N_8  and  C_24
REMARK    4  A    between atoms: C_15  and  C_16
REMARK                            x       y       z     vdW  Elec       q    Type
REMARK                         _______ _______ _______ _____ _____    ______ ____
ROOT
ATOM      1  C   UNL     1      -1.025   9.274   0.000  0.00  0.00    +0.045 A 
ATOM      2  C   UNL     1      -2.324  10.025   0.000  0.00  0.00    +0.066 C 
ATOM      3  C   UNL     1      -1.025   7.774   0.000  0.00  0.00    +0.067 A 
ATOM      4  C   UNL     1       0.275   7.024   0.000  0.00  0.00    +0.128 A 
ATOM     12  N   UNL     1       1.574   7.774   0.000  0.00  0.00    -0.182 N 
ATOM     13  N   UNL     1       3.000   7.311   0.000  0.00  0.00    -0.142 NA
ATOM     14  C   UNL     1       3.882   8.524   0.000  0.00  0.00    +0.184 A 
ATOM     22  N   UNL     1       3.000   9.738   0.000  0.00  0.00    -0.189 NA
ATOM     23  C   UNL     1       1.574   9.274   0.000  0.00  0.00    +0.255 A 
ATOM     24  N   UNL     1       0.275  10.025   0.000  0.00  0.00    -0.216 NA
ENDROOT
BRANCH   4   5
ATOM      5  N   UNL     1       0.275   5.524   0.000  0.00  0.00    -0.313 N 
ATOM      6  C   UNL     1       1.574   4.774   0.000  0.00  0.00    +0.122 C 
ATOM      7  C   UNL     1       1.574   3.275   0.000  0.00  0.00    +0.103 C 
ATOM      8  N   UNL     1       0.275   2.525   0.000  0.00  0.00    -0.302 NA
ATOM      9  C   UNL     1       0.275   1.025   0.000  0.00  0.00    +0.105 C 
ATOM     10  C   UNL     1      -1.025   3.275   0.000  0.00  0.00    +0.103 C 
ATOM     11  C   UNL     1      -1.025   4.774   0.000  0.00  0.00    +0.122 C 
ENDBRANCH   4   5
BRANCH  14  15
ATOM     15  C   UNL     1       5.382   8.524   0.000  0.00  0.00    +0.021 A 
ATOM     16  C   UNL     1       6.132   7.226   0.000  0.00  0.00    +0.013 A 
ATOM     17  C   UNL     1       7.632   7.226   0.000  0.00  0.00    +0.021 A 
ATOM     18  C   UNL     1       8.382   8.524   0.000  0.00  0.00    +0.041 A 
ATOM     19 CL   UNL     1       9.882   8.524   0.000  0.00  0.00    -0.084 Cl
ATOM     20  C   UNL     1       7.632   9.823   0.000  0.00  0.00    +0.021 A 
ATOM     21  C   UNL     1       6.132   9.823   0.000  0.00  0.00    +0.013 A 
ENDBRANCH  14  15
TORSDOF 2