REMARK  Name = 236246
REMARK  4 active torsions:
REMARK  status: ('A' for Active; 'I' for Inactive)
REMARK    1  A    between atoms: C_2  and  C_9
REMARK    2  A    between atoms: N_5  and  O_15
REMARK    3  A    between atoms: C_6  and  C_16
REMARK    4  A    between atoms: C_16  and  C_17
REMARK                            x       y       z     vdW  Elec       q    Type
REMARK                         _______ _______ _______ _____ _____    ______ ____
ROOT
ATOM      1  O   UNL     1      -1.041  -2.742   0.000  0.00  0.00    -0.563 OA
ATOM      2  N   UNL     1       0.001  -1.663   0.000  0.00  0.00    +0.090 N 
ATOM      3  N   UNL     1       1.487  -1.872   0.000  0.00  0.00    +0.085 N 
ATOM      4  O   UNL     1       2.191  -3.197   0.000  0.00  0.00    -0.563 OA
ATOM      5  C   UNL     1       2.144  -0.524   0.000  0.00  0.00    +0.301 C 
ATOM      8  C   UNL     1       1.065   0.518   0.000  0.00  0.00    +0.255 C 
ATOM      9  N   UNL     1       1.274   2.003   0.000  0.00  0.00    -0.074 NA
ATOM     12  C   UNL     1      -0.259  -0.186   0.000  0.00  0.00    +0.331 C 
ENDROOT
BRANCH  12  13
ATOM     13  C   UNL     1      -1.607   0.471   0.000  0.00  0.00    +0.057 A 
ATOM     14  C   UNL     1      -1.712   1.968   0.000  0.00  0.00    +0.015 A 
ATOM     15  C   UNL     1      -3.060   2.625   0.000  0.00  0.00    +0.001 A 
ATOM     16  C   UNL     1      -4.304   1.787   0.000  0.00  0.00    +0.000 A 
ATOM     17  C   UNL     1      -4.199   0.290   0.000  0.00  0.00    +0.001 A 
ATOM     18  C   UNL     1      -2.851  -0.367   0.000  0.00  0.00    +0.015 A 
ENDBRANCH  12  13
BRANCH   5   6
ATOM      6  C   UNL     1       3.621  -0.264   0.000  0.00  0.00    +0.115 C 
ATOM      7  C   UNL     1       4.586  -1.413   0.000  0.00  0.00    +0.015 C 
ENDBRANCH   5   6
BRANCH   9  10
ATOM     10  O   UNL     1       2.665   2.565   0.000  0.00  0.00    -0.408 OA
ATOM     11  H   UNL     1       3.403   1.989   0.000  0.00  0.00    +0.328 HD
ENDBRANCH   9  10
TORSDOF 3