REMARK  Name = 234945
REMARK  2 active torsions:
REMARK  status: ('A' for Active; 'I' for Inactive)
REMARK    1  A    between atoms: C_6  and  C_7
REMARK    2  A    between atoms: C_12  and  C_13
REMARK                            x       y       z     vdW  Elec       q    Type
REMARK                         _______ _______ _______ _____ _____    ______ ____
ROOT
ATOM      5  C   UNL     1       5.032   3.417   0.000  0.00  0.00    +0.200 A 
ATOM      6  N   UNL     1       5.032   1.917   0.000  0.00  0.00    -0.150 NA
ATOM      7  N   UNL     1       6.458   1.453   0.000  0.00  0.00    -0.257 N 
ATOM      8  H   UNL     1       6.922   0.027   0.000  0.00  0.00    +0.191 HD
ATOM      9  C   UNL     1       7.340   2.667   0.000  0.00  0.00    +0.175 A 
ATOM     16  N   UNL     1       6.458   3.880   0.000  0.00  0.00    -0.204 NA
ENDROOT
BRANCH   5   4
ATOM      1  C   UNL     1       1.391   6.062   0.000  0.00  0.00    +0.020 A 
ATOM      2  C   UNL     1       1.234   4.570   0.000  0.00  0.00    +0.111 A 
ATOM      3  N   UNL     1       2.448   3.688   0.000  0.00  0.00    -0.252 NA
ATOM      4  C   UNL     1       3.818   4.298   0.000  0.00  0.00    +0.110 A 
ATOM     17  C   UNL     1       3.975   5.790   0.000  0.00  0.00    +0.031 A 
ATOM     18  C   UNL     1       2.762   6.672   0.000  0.00  0.00    +0.004 A 
ENDBRANCH   5   4
BRANCH   9  10
ATOM     10  C   UNL     1       8.840   2.667   0.000  0.00  0.00    +0.107 A 
ATOM     11  N   UNL     1       9.590   1.368   0.000  0.00  0.00    -0.252 NA
ATOM     12  C   UNL     1      11.090   1.368   0.000  0.00  0.00    +0.111 A 
ATOM     13  C   UNL     1      11.840   2.667   0.000  0.00  0.00    +0.020 A 
ATOM     14  C   UNL     1      11.090   3.966   0.000  0.00  0.00    +0.004 A 
ATOM     15  C   UNL     1       9.590   3.966   0.000  0.00  0.00    +0.031 A 
ENDBRANCH   9  10
TORSDOF 2