REMARK  Name = 252172
REMARK  4 active torsions:
REMARK  status: ('A' for Active; 'I' for Inactive)
REMARK    1  A    between atoms: C_12  and  C_19
REMARK    2  A    between atoms: C_17  and  O_18
REMARK    3  A    between atoms: O_18  and  C_20
REMARK    4  A    between atoms: C_20  and  C_21
REMARK                            x       y       z     vdW  Elec       q    Type
REMARK                         _______ _______ _______ _____ _____    ______ ____
ROOT
ATOM      1  C   UNL     1      -4.272  -8.899   0.000  0.00  0.00    +0.001 A 
ATOM      2  C   UNL     1      -4.272 -10.400   0.000  0.00  0.00    +0.000 A 
ATOM      3  C   UNL     1      -2.973 -11.150   0.000  0.00  0.00    +0.004 A 
ATOM      4  C   UNL     1      -1.674 -10.400   0.000  0.00  0.00    -0.036 A 
ATOM      5  C   UNL     1      -0.375 -11.150   0.000  0.00  0.00    +0.040 C 
ATOM      6  C   UNL     1       0.924 -10.400   0.000  0.00  0.00    +0.043 C 
ATOM      7  C   UNL     1       0.924  -8.899   0.000  0.00  0.00    +0.001 C 
ATOM      8  C   UNL     1       2.223  -8.149   0.000  0.00  0.00    +0.015 C 
ATOM     18  C   UNL     1      -0.375  -8.149   0.000  0.00  0.00    +0.189 C 
ATOM     19  O   UNL     1      -0.375  -6.649   0.000  0.00  0.00    -0.287 OA
ATOM     20  C   UNL     1      -1.674  -8.899   0.000  0.00  0.00    +0.025 A 
ATOM     21  C   UNL     1      -2.973  -8.149   0.000  0.00  0.00    +0.012 A 
ENDROOT
BRANCH   8   9
ATOM      9  C   UNL     1       3.522  -8.899   0.000  0.00  0.00    -0.024 A 
ATOM     10  C   UNL     1       3.522 -10.400   0.000  0.00  0.00    +0.011 A 
ATOM     11  C   UNL     1       4.821 -11.150   0.000  0.00  0.00    +0.046 A 
ATOM     12  C   UNL     1       6.120 -10.400   0.000  0.00  0.00    +0.121 A 
ATOM     16  C   UNL     1       6.120  -8.899   0.000  0.00  0.00    +0.046 A 
ATOM     17  C   UNL     1       4.821  -8.149   0.000  0.00  0.00    +0.011 A 
BRANCH  12  13
ATOM     13  O   UNL     1       7.419 -11.150   0.000  0.00  0.00    -0.492 OA
BRANCH  13  14
ATOM     14  C   UNL     1       8.718 -10.400   0.000  0.00  0.00    +0.225 C 
ATOM     15  C   UNL     1       8.718  -8.899   0.000  0.00  0.00    +0.048 C 
ENDBRANCH  13  14
ENDBRANCH  12  13
ENDBRANCH   8   9
TORSDOF 3