REMARK  Name = 244387
REMARK  15 active torsions:
REMARK  status: ('A' for Active; 'I' for Inactive)
REMARK    1  A    between atoms: C_6  and  C_8
REMARK    2  A    between atoms: C_6  and  C_9
REMARK    3  A    between atoms: C_7  and  C_8
REMARK    4  A    between atoms: C_7  and  C_12
REMARK    5  A    between atoms: C_8  and  C_20
REMARK    6  A    between atoms: C_9  and  O_11
REMARK    7  A    between atoms: C_12  and  C_13
REMARK    8  A    between atoms: C_13  and  C_14
REMARK    9  A    between atoms: C_14  and  C_15
REMARK   10  A    between atoms: C_15  and  C_16
REMARK   11  A    between atoms: C_16  and  C_17
REMARK   12  A    between atoms: C_17  and  C_18
REMARK   13  A    between atoms: C_18  and  C_19
REMARK   14  A    between atoms: C_19  and  C_23
REMARK   15  A    between atoms: C_20  and  O_22
REMARK                            x       y       z     vdW  Elec       q    Type
REMARK                         _______ _______ _______ _____ _____    ______ ____
ROOT
ATOM     10  C   UNL     1       7.014  -2.382   0.000  0.00  0.00    +0.152 C 
ENDROOT
BRANCH  10   5
ATOM      1  O   UNL     1       5.401   2.701   0.000  0.00  0.00    -0.251 OA
ATOM      2  C   UNL     1       6.011   1.331   0.000  0.00  0.00    +0.308 C 
ATOM      3  C   UNL     1       7.478   1.019   0.000  0.00  0.00    +0.125 C 
ATOM      4  C   UNL     1       7.635  -0.473   0.000  0.00  0.00    +0.072 C 
ATOM      5  C   UNL     1       6.264  -1.083   0.000  0.00  0.00    +0.222 C 
ATOM     25  O   UNL     1       5.261   0.032   0.000  0.00  0.00    -0.446 OA
BRANCH   5   6
ATOM      6  C   UNL     1       5.051  -1.965   0.000  0.00  0.00    +0.350 C 
ATOM      9  O   UNL     1       5.208  -3.457   0.000  0.00  0.00    -0.246 OA
BRANCH   6   7
ATOM      7  O   UNL     1       3.680  -1.355   0.000  0.00  0.00    -0.478 OA
ATOM      8  H   UNL     1       3.583  -0.423   0.000  0.00  0.00    +0.295 HD
ENDBRANCH   6   7
ENDBRANCH   5   6
ENDBRANCH  10   5
BRANCH  10  11
ATOM     11  C   UNL     1       8.514  -2.382   0.000  0.00  0.00    +0.312 C 
ATOM     14  O   UNL     1       9.264  -1.083   0.000  0.00  0.00    -0.251 OA
BRANCH  11  12
ATOM     12  O   UNL     1       9.264  -3.681   0.000  0.00  0.00    -0.480 OA
ATOM     13  H   UNL     1       8.796  -4.493   0.000  0.00  0.00    +0.295 HD
ENDBRANCH  11  12
ENDBRANCH  10  11
BRANCH  10  15
ATOM     15  C   UNL     1       6.264  -3.681   0.000  0.00  0.00    +0.019 C 
BRANCH  15  16
ATOM     16  C   UNL     1       7.014  -4.980   0.000  0.00  0.00    +0.001 C 
BRANCH  16  17
ATOM     17  C   UNL     1       6.264  -6.279   0.000  0.00  0.00    +0.000 C 
BRANCH  17  18
ATOM     18  C   UNL     1       7.014  -7.578   0.000  0.00  0.00    +0.000 C 
BRANCH  18  19
ATOM     19  C   UNL     1       8.514  -7.578   0.000  0.00  0.00    +0.000 C 
BRANCH  19  20
ATOM     20  C   UNL     1       9.264  -8.877   0.000  0.00  0.00    -0.000 C 
BRANCH  20  21
ATOM     21  C   UNL     1      10.764  -8.877   0.000  0.00  0.00    -0.000 C 
BRANCH  21  22
ATOM     22  C   UNL     1      11.514 -10.176   0.000  0.00  0.00    -0.000 C 
BRANCH  22  23
ATOM     23  C   UNL     1      10.764 -11.475   0.000  0.00  0.00    -0.003 C 
ATOM     24  C   UNL     1       9.264 -11.475   0.000  0.00  0.00    +0.004 C 
ENDBRANCH  22  23
ENDBRANCH  21  22
ENDBRANCH  20  21
ENDBRANCH  19  20
ENDBRANCH  18  19
ENDBRANCH  17  18
ENDBRANCH  16  17
ENDBRANCH  15  16
ENDBRANCH  10  15
TORSDOF 14