REMARK  Name = 328010
REMARK  9 active torsions:
REMARK  status: ('A' for Active; 'I' for Inactive)
REMARK    1  A    between atoms: O_1  and  C_3
REMARK    2  A    between atoms: O_1  and  C_22
REMARK    3  A    between atoms: C_3  and  C_4
REMARK    4  A    between atoms: C_5  and  C_23
REMARK    5  A    between atoms: C_9  and  N_16
REMARK    6  A    between atoms: C_10  and  C_24
REMARK    7  A    between atoms: C_11  and  C_14
REMARK    8  A    between atoms: C_14  and  O_17
REMARK    9  A    between atoms: O_17  and  C_25
REMARK                            x       y       z     vdW  Elec       q    Type
REMARK                         _______ _______ _______ _____ _____    ______ ____
ROOT
ATOM      4  C   UNL     1       3.540   5.575   0.000  0.00  0.00    +0.055 C 
ATOM      5  C   UNL     1       3.874   4.113   0.000  0.00  0.00    +0.015 C 
ATOM      6  C   UNL     1       2.701   3.178   0.000  0.00  0.00    +0.061 C 
ATOM      7  N   UNL     1       5.226   3.462   0.000  0.00  0.00    -0.321 N 
ATOM      8  H   UNL     1       5.877   2.111   0.000  0.00  0.00    +0.152 HD
ATOM      9  C   UNL     1       5.559   4.924   0.000  0.00  0.00    +0.017 C 
ATOM     10  C   UNL     1       6.732   3.989   0.000  0.00  0.00    +0.061 C 
ATOM     11  C   UNL     1       6.911   5.575   0.000  0.00  0.00    +0.074 C 
ATOM     16  C   UNL     1       5.976   6.748   0.000  0.00  0.00    +0.127 C 
ATOM     24  C   UNL     1       4.476   6.748   0.000  0.00  0.00    +0.072 C 
ENDROOT
BRANCH  16  17
ATOM     17  N   UNL     1       6.627   8.099   0.000  0.00  0.00    -0.234 N 
ATOM     18  C   UNL     1       8.102   8.367   0.000  0.00  0.00    +0.223 C 
ATOM     19  O   UNL     1       9.187   7.331   0.000  0.00  0.00    -0.275 OA
ATOM     20  C   UNL     1       8.304   9.854   0.000  0.00  0.00    +0.105 C 
ATOM     21  C   UNL     1       6.952  10.505   0.000  0.00  0.00    +0.105 C 
ATOM     22  C   UNL     1       5.916   9.420   0.000  0.00  0.00    +0.223 C 
ATOM     23  O   UNL     1       4.429   9.622   0.000  0.00  0.00    -0.275 OA
ENDBRANCH  16  17
BRANCH   4   3
ATOM      3  C   UNL     1       2.078   5.909   0.000  0.00  0.00    +0.336 C 
ATOM     25  O   UNL     1       1.636   7.342   0.000  0.00  0.00    -0.245 OA
BRANCH   3   1
ATOM      1  O   UNL     1       1.058   4.809   0.000  0.00  0.00    -0.465 OA
ATOM      2  C   UNL     1      -0.405   5.143   0.000  0.00  0.00    +0.280 C 
ENDBRANCH   3   1
ENDBRANCH   4   3
BRANCH  11  12
ATOM     12  C   UNL     1       8.373   5.241   0.000  0.00  0.00    +0.338 C 
ATOM     15  O   UNL     1       9.394   6.341   0.000  0.00  0.00    -0.245 OA
BRANCH  12  13
ATOM     13  O   UNL     1       8.815   3.808   0.000  0.00  0.00    -0.465 OA
ATOM     14  C   UNL     1      10.278   3.474   0.000  0.00  0.00    +0.280 C 
ENDBRANCH  12  13
ENDBRANCH  11  12
TORSDOF 5