REMARK  Name = 319709
REMARK  3 active torsions:
REMARK  status: ('A' for Active; 'I' for Inactive)
REMARK    1  A    between atoms: C_6  and  N_7
REMARK    2  A    between atoms: N_10  and  C_20
REMARK    3  A    between atoms: N_11  and  C_14
REMARK                            x       y       z     vdW  Elec       q    Type
REMARK                         _______ _______ _______ _____ _____    ______ ____
ROOT
ATOM      5  N   UNL     1       8.381   5.946   0.000  0.00  0.00    -0.267 NA
ATOM      6  C   UNL     1       9.131   4.647   0.000  0.00  0.00    +0.201 C 
ATOM      7  N   UNL     1      10.631   4.647   0.000  0.00  0.00    -0.269 N 
ATOM     14  C   UNL     1      11.381   5.946   0.000  0.00  0.00    +0.146 C 
ATOM     15  S   UNL     1      12.881   5.946   0.000  0.00  0.00    -0.018 S 
ATOM     16  N   UNL     1      10.631   7.245   0.000  0.00  0.00    -0.269 N 
ATOM     23  C   UNL     1       9.131   7.245   0.000  0.00  0.00    +0.201 C 
ENDROOT
BRANCH   5   4
ATOM      1  C   UNL     1       3.881   5.946   0.000  0.00  0.00    +0.000 C 
ATOM      2  C   UNL     1       4.631   4.647   0.000  0.00  0.00    +0.002 C 
ATOM      3  C   UNL     1       6.131   4.647   0.000  0.00  0.00    +0.019 C 
ATOM      4  C   UNL     1       6.881   5.946   0.000  0.00  0.00    +0.060 C 
ATOM     24  C   UNL     1       6.131   7.245   0.000  0.00  0.00    +0.019 C 
ATOM     25  C   UNL     1       4.631   7.245   0.000  0.00  0.00    +0.002 C 
ENDBRANCH   5   4
BRANCH   7   8
ATOM      8  C   UNL     1      11.381   3.348   0.000  0.00  0.00    +0.037 A 
ATOM      9  C   UNL     1      10.631   2.049   0.000  0.00  0.00    +0.023 A 
ATOM     10  C   UNL     1      11.381   0.750   0.000  0.00  0.00    +0.002 A 
ATOM     11  C   UNL     1      12.881   0.750   0.000  0.00  0.00    +0.000 A 
ATOM     12  C   UNL     1      13.631   2.049   0.000  0.00  0.00    +0.002 A 
ATOM     13  C   UNL     1      12.881   3.348   0.000  0.00  0.00    +0.023 A 
ENDBRANCH   7   8
BRANCH  16  17
ATOM     17  C   UNL     1      11.381   8.544   0.000  0.00  0.00    +0.037 A 
ATOM     18  C   UNL     1      12.881   8.544   0.000  0.00  0.00    +0.023 A 
ATOM     19  C   UNL     1      13.631   9.843   0.000  0.00  0.00    +0.002 A 
ATOM     20  C   UNL     1      12.881  11.142   0.000  0.00  0.00    +0.000 A 
ATOM     21  C   UNL     1      11.381  11.142   0.000  0.00  0.00    +0.002 A 
ATOM     22  C   UNL     1      10.631   9.843   0.000  0.00  0.00    +0.023 A 
ENDBRANCH  16  17
TORSDOF 3