REMARK  Name = 326385
REMARK  1 active torsions:
REMARK  status: ('A' for Active; 'I' for Inactive)
REMARK    1  A    between atoms: N_7  and  C_8
REMARK                            x       y       z     vdW  Elec       q    Type
REMARK                         _______ _______ _______ _____ _____    ______ ____
ROOT
ATOM      6  C   UNL     1       4.558   3.390   0.000  0.00  0.00    +0.063 A 
ATOM      7  C   UNL     1       5.308   2.091   0.000  0.00  0.00    +0.026 A 
ATOM      8  C   UNL     1       6.808   2.091   0.000  0.00  0.00    +0.016 A 
ATOM      9  C   UNL     1       7.558   3.390   0.000  0.00  0.00    +0.015 A 
ATOM     10  I   UNL     1       9.058   3.390   0.000  0.00  0.00    -0.044 I 
ATOM     11  C   UNL     1       6.808   4.689   0.000  0.00  0.00    +0.036 A 
ATOM     12  C   UNL     1       5.308   4.689   0.000  0.00  0.00    +0.064 A 
ATOM     13 CL   UNL     1       4.558   5.988   0.000  0.00  0.00    -0.082 Cl
ENDROOT
BRANCH   6   5
ATOM      1  C   UNL     1       0.750   4.140   0.000  0.00  0.00    +0.073 C 
ATOM      2  C   UNL     1       0.750   2.640   0.000  0.00  0.00    +0.073 C 
ATOM      3  C   UNL     1       2.177   2.177   0.000  0.00  0.00    +0.250 C 
ATOM      4  O   UNL     1       2.640   0.750   0.000  0.00  0.00    -0.270 OA
ATOM      5  N   UNL     1       3.058   3.390   0.000  0.00  0.00    -0.202 N 
ATOM     14  C   UNL     1       2.177   4.604   0.000  0.00  0.00    +0.250 C 
ATOM     15  O   UNL     1       2.640   6.030   0.000  0.00  0.00    -0.270 OA
ENDBRANCH   6   5
TORSDOF 1