REMARK  Name = 319436
REMARK  4 active torsions:
REMARK  status: ('A' for Active; 'I' for Inactive)
REMARK    1  A    between atoms: C_2  and  C_19
REMARK    2  A    between atoms: C_4  and  N_21
REMARK    3  A    between atoms: C_12  and  N_21
REMARK    4  A    between atoms: C_16  and  C_22
REMARK                            x       y       z     vdW  Elec       q    Type
REMARK                         _______ _______ _______ _____ _____    ______ ____
ROOT
ATOM      1  O   UNL     1      -2.324 -11.525   0.000  0.00  0.00    -0.269 OA
ATOM      2  C   UNL     1      -1.025 -10.775   0.000  0.00  0.00    +0.258 C 
ATOM      3  N   UNL     1       0.275 -11.525   0.000  0.00  0.00    -0.296 N 
ATOM      4  H   UNL     1       0.275 -13.025   0.000  0.00  0.00    +0.150 HD
ATOM      5  C   UNL     1       1.574 -10.775   0.000  0.00  0.00    +0.087 C 
ATOM      6  C   UNL     1       1.730 -12.266   0.000  0.00  0.00    +0.037 C 
ATOM      7  C   UNL     1       3.198 -12.578   0.000  0.00  0.00    +0.003 C 
ATOM      8  C   UNL     1       3.948 -11.279   0.000  0.00  0.00    +0.003 C 
ATOM      9  C   UNL     1       2.944 -10.164   0.000  0.00  0.00    +0.037 C 
ATOM     10  S   UNL     1       1.574  -9.274   0.000  0.00  0.00    -0.083 S 
ATOM     11  C   UNL     1       0.275  -8.524   0.000  0.00  0.00    +0.090 C 
ATOM     21  C   UNL     1      -1.025  -9.274   0.000  0.00  0.00    +0.141 C 
ENDROOT
BRANCH  11  12
ATOM     12  N   UNL     1       0.275  -7.024   0.000  0.00  0.00    -0.308 N 
ATOM     13  H   UNL     1      -0.578  -6.532   0.000  0.00  0.00    +0.153 HD
BRANCH  12  14
ATOM     14  C   UNL     1       1.574  -6.274   0.000  0.00  0.00    +0.032 A 
ATOM     15  C   UNL     1       2.873  -7.024   0.000  0.00  0.00    +0.023 A 
ATOM     16  C   UNL     1       4.172  -6.274   0.000  0.00  0.00    +0.002 A 
ATOM     17  C   UNL     1       4.172  -4.774   0.000  0.00  0.00    +0.003 A 
ATOM     18  C   UNL     1       2.873  -4.024   0.000  0.00  0.00    -0.049 A 
ATOM     19  C   UNL     1       2.873  -2.525   0.000  0.00  0.00    +0.044 C 
ATOM     20  C   UNL     1       1.574  -4.774   0.000  0.00  0.00    +0.026 A 
ENDBRANCH  12  14
ENDBRANCH  11  12
BRANCH  21  22
ATOM     22  C   UNL     1      -2.324  -8.524   0.000  0.00  0.00    +0.107 C 
ATOM     23  N   UNL     1      -3.623  -7.774   0.000  0.00  0.00    -0.191 NA
ENDBRANCH  21  22
TORSDOF 3