REMARK  Name = 3247
REMARK  6 active torsions:
REMARK  status: ('A' for Active; 'I' for Inactive)
REMARK    1  A    between atoms: C_3  and  AS_4
REMARK    2  A    between atoms: AS_4  and  O_15
REMARK    3  A    between atoms: AS_4  and  O_16
REMARK    4  A    between atoms: C_5  and  O_12
REMARK    5  A    between atoms: C_7  and  N_9
REMARK    6  A    between atoms: C_10  and  C_13
REMARK                            x       y       z     vdW  Elec       q    Type
REMARK                         _______ _______ _______ _____ _____    ______ ____
ROOT
ATOM      1  C   UNL     1       2.973  -2.150   0.000  0.00  0.00    +0.000 A 
ATOM      2  C   UNL     1       2.973  -3.650   0.000  0.00  0.00    +0.000 A 
ATOM      3  C   UNL     1       4.272  -4.399   0.000  0.00  0.00    +0.000 A 
ATOM      6  C   UNL     1       5.571  -3.650   0.000  0.00  0.00    +0.000 A 
ATOM     12  C   UNL     1       5.571  -2.150   0.000  0.00  0.00    +0.000 A 
ATOM     13  C   UNL     1       4.272  -1.400   0.000  0.00  0.00    +0.000 A 
ENDROOT
BRANCH   6   7
ATOM      7  N   UNL     1       6.870  -4.399   0.000  0.00  0.00    +0.000 N 
ATOM      8  C   UNL     1       8.169  -3.650   0.000  0.00  0.00    +0.000 C 
ATOM      9  C   UNL     1       9.468  -4.399   0.000  0.00  0.00    +0.000 C 
ATOM     10  O   UNL     1       8.169  -2.150   0.000  0.00  0.00    +0.000 OA
ATOM     11  H   UNL     1       6.870  -5.899   0.000  0.00  0.00    +0.000 HD
ENDBRANCH   6   7
BRANCH   3   4
ATOM      4  O   UNL     1       4.272  -5.899   0.000  0.00  0.00    +0.000 OA
ATOM      5  H   UNL     1       3.461  -6.368   0.000  0.00  0.00    +0.000 HD
ENDBRANCH   3   4
BRANCH  13  14
ATOM     14 AS   UNL     1       4.272   0.101   0.000  0.00  0.00    +0.000 As
ATOM     19  O   UNL     1       2.772   0.101   0.000  0.00  0.00    +0.000 OA
BRANCH  14  15
ATOM     15  O   UNL     1       5.772   0.101   0.000  0.00  0.00    +0.000 OA
ATOM     16  H   UNL     1       6.257  -0.740   0.000  0.00  0.00    +0.000 HD
ENDBRANCH  14  15
BRANCH  14  17
ATOM     17  O   UNL     1       4.272   1.601   0.000  0.00  0.00    +0.000 OA
ATOM     18  H   UNL     1       5.112   2.086   0.000  0.00  0.00    +0.000 HD
ENDBRANCH  14  17
ENDBRANCH  13  14
TORSDOF 5