REMARK  Name = 324623
REMARK  3 active torsions:
REMARK  status: ('A' for Active; 'I' for Inactive)
REMARK    1  A    between atoms: C_9  and  C_11
REMARK    2  A    between atoms: C_15  and  C_18
REMARK    3  A    between atoms: C_18  and  C_20
REMARK                            x       y       z     vdW  Elec       q    Type
REMARK                         _______ _______ _______ _____ _____    ______ ____
ROOT
ATOM      1  C   UNL     1      -2.324  -5.524   0.000  0.00  0.00    +0.018 A 
ATOM      2  C   UNL     1      -2.324  -7.024   0.000  0.00  0.00    +0.095 A 
ATOM      3  N   UNL     1      -1.025  -7.774   0.000  0.00  0.00    -0.283 N 
ATOM      4  C   UNL     1      -1.025  -9.274   0.000  0.00  0.00    +0.265 A 
ATOM      5  C   UNL     1       0.275 -10.025   0.000  0.00  0.00    +0.066 A 
ATOM     12  C   UNL     1       1.574  -9.274   0.000  0.00  0.00    +0.029 A 
ATOM     13  C   UNL     1       1.574  -7.774   0.000  0.00  0.00    +0.047 A 
ATOM     22  O   UNL     1      -2.324 -10.025   0.000  0.00  0.00    -0.267 OA
ATOM     23  C   UNL     1       0.275  -7.024   0.000  0.00  0.00    +0.060 A 
ATOM     24  C   UNL     1       0.275  -5.524   0.000  0.00  0.00    +0.027 A 
ATOM     25  C   UNL     1      -1.025  -4.774   0.000  0.00  0.00    +0.003 A 
ENDROOT
BRANCH   5   6
ATOM      6  C   UNL     1       0.275 -11.525   0.000  0.00  0.00    +0.076 A 
ATOM      7  N   UNL     1       1.574 -12.275   0.000  0.00  0.00    -0.255 NA
ATOM      8  C   UNL     1       1.574 -13.775   0.000  0.00  0.00    +0.111 A 
ATOM      9  C   UNL     1       0.275 -14.525   0.000  0.00  0.00    +0.020 A 
ATOM     10  C   UNL     1      -1.025 -13.775   0.000  0.00  0.00    +0.004 A 
ATOM     11  C   UNL     1      -1.025 -12.275   0.000  0.00  0.00    +0.028 A 
ENDBRANCH   5   6
BRANCH  13  14
ATOM     14  C   UNL     1       2.873  -7.024   0.000  0.00  0.00    +0.197 C 
ATOM     15  O   UNL     1       4.172  -7.774   0.000  0.00  0.00    -0.287 OA
BRANCH  14  16
ATOM     16  C   UNL     1       2.873  -5.524   0.000  0.00  0.00    +0.040 A 
ATOM     17  C   UNL     1       4.172  -4.774   0.000  0.00  0.00    +0.122 A 
ATOM     18  N   UNL     1       4.172  -3.275   0.000  0.00  0.00    -0.263 NA
ATOM     19  C   UNL     1       2.873  -2.525   0.000  0.00  0.00    +0.111 A 
ATOM     20  C   UNL     1       1.574  -3.275   0.000  0.00  0.00    +0.020 A 
ATOM     21  C   UNL     1       1.574  -4.774   0.000  0.00  0.00    +0.015 A 
ENDBRANCH  14  16
ENDBRANCH  13  14
TORSDOF 3