REMARK  Name = 321792
REMARK  1 active torsions:
REMARK  status: ('A' for Active; 'I' for Inactive)
REMARK    1  A    between atoms: C_7  and  N_15
REMARK                            x       y       z     vdW  Elec       q    Type
REMARK                         _______ _______ _______ _____ _____    ______ ____
ROOT
ATOM      5  N   UNL     1       4.774   3.623   0.000  0.00  0.00    -0.269 N 
ATOM      6  H   UNL     1       5.267   2.770   0.000  0.00  0.00    +0.156 HD
ATOM      7  C   UNL     1       5.524   4.922   0.000  0.00  0.00    +0.310 C 
ATOM      8  N   UNL     1       7.024   4.922   0.000  0.00  0.00    -0.248 N 
ATOM      9  H   UNL     1       7.517   4.069   0.000  0.00  0.00    +0.158 HD
ATOM     10  C   UNL     1       7.774   6.221   0.000  0.00  0.00    +0.165 A 
ATOM     11  S   UNL     1       9.266   6.378   0.000  0.00  0.00    -0.060 S 
ATOM     12  C   UNL     1       9.578   7.845   0.000  0.00  0.00    +0.068 A 
ATOM     13  C   UNL     1       8.279   8.595   0.000  0.00  0.00    +0.120 A 
ATOM     14  N   UNL     1       7.164   7.591   0.000  0.00  0.00    -0.233 NA
ATOM     15  O   UNL     1       4.774   6.221   0.000  0.00  0.00    -0.252 OA
ENDROOT
BRANCH   5   4
ATOM      1  C   UNL     1       0.275   3.623   0.000  0.00  0.00    +0.020 A 
ATOM      2  C   UNL     1       1.025   2.324   0.000  0.00  0.00    +0.043 A 
ATOM      3  C   UNL     1       2.525   2.324   0.000  0.00  0.00    +0.043 A 
ATOM      4  C   UNL     1       3.275   3.623   0.000  0.00  0.00    +0.036 A 
ATOM     16  C   UNL     1       2.525   4.922   0.000  0.00  0.00    +0.023 A 
ATOM     17 CL   UNL     1       0.275   1.025   0.000  0.00  0.00    -0.083 Cl
ATOM     18  C   UNL     1       1.025   4.922   0.000  0.00  0.00    +0.003 A 
ENDBRANCH   5   4
TORSDOF 1