REMARK  Name = 319079
REMARK  9 active torsions:
REMARK  status: ('A' for Active; 'I' for Inactive)
REMARK    1  A    between atoms: O_1  and  C_3
REMARK    2  A    between atoms: O_1  and  C_15
REMARK    3  A    between atoms: O_2  and  C_4
REMARK    4  A    between atoms: O_2  and  C_17
REMARK    5  A    between atoms: C_5  and  O_6
REMARK    6  A    between atoms: O_6  and  C_19
REMARK    7  A    between atoms: C_15  and  C_16
REMARK    8  A    between atoms: C_17  and  C_18
REMARK    9  A    between atoms: C_19  and  C_20
REMARK                            x       y       z     vdW  Elec       q    Type
REMARK                         _______ _______ _______ _____ _____    ______ ____
ROOT
ATOM      4  C   UNL     1       6.211   0.280   0.000  0.00  0.00    +0.206 A 
ATOM      5  C   UNL     1       6.211  -1.220   0.000  0.00  0.00    +0.166 A 
ATOM      6  C   UNL     1       7.510  -1.970   0.000  0.00  0.00    +0.062 A 
ATOM      7  C   UNL     1       8.809  -1.220   0.000  0.00  0.00    +0.044 A 
ATOM      8  C   UNL     1      10.108  -1.970   0.000  0.00  0.00    +0.140 A 
ATOM      9 CL   UNL     1      10.108  -3.470   0.000  0.00  0.00    -0.061 Cl
ATOM     10  N   UNL     1      11.408  -1.220   0.000  0.00  0.00    -0.223 NA
ATOM     11  C   UNL     1      11.408   0.280   0.000  0.00  0.00    +0.223 A 
ATOM     12  N   UNL     1      10.108   1.030   0.000  0.00  0.00    -0.232 NA
ATOM     13  C   UNL     1       8.809   0.280   0.000  0.00  0.00    +0.121 A 
ATOM     17  C   UNL     1       7.510   1.030   0.000  0.00  0.00    +0.192 A 
ENDROOT
BRANCH   4   1
ATOM      1  O   UNL     1       4.912   1.030   0.000  0.00  0.00    -0.485 OA
BRANCH   1   2
ATOM      2  C   UNL     1       4.912   2.530   0.000  0.00  0.00    +0.226 C 
ATOM      3  C   UNL     1       6.211   3.280   0.000  0.00  0.00    +0.048 C 
ENDBRANCH   1   2
ENDBRANCH   4   1
BRANCH   5  14
ATOM     14  O   UNL     1       4.912  -1.970   0.000  0.00  0.00    -0.488 OA
BRANCH  14  15
ATOM     15  C   UNL     1       3.613  -1.220   0.000  0.00  0.00    +0.226 C 
ATOM     16  C   UNL     1       3.613   0.280   0.000  0.00  0.00    +0.048 C 
ENDBRANCH  14  15
ENDBRANCH   5  14
BRANCH  17  18
ATOM     18  O   UNL     1       7.510   2.530   0.000  0.00  0.00    -0.486 OA
BRANCH  18  19
ATOM     19  C   UNL     1       8.809   3.280   0.000  0.00  0.00    +0.226 C 
ATOM     20  C   UNL     1       8.809   4.780   0.000  0.00  0.00    +0.048 C 
ENDBRANCH  18  19
ENDBRANCH  17  18
TORSDOF 6