REMARK  Name = 321506
REMARK  2 active torsions:
REMARK  status: ('A' for Active; 'I' for Inactive)
REMARK    1  A    between atoms: C_3  and  S_14
REMARK    2  A    between atoms: N_5  and  C_6
REMARK                            x       y       z     vdW  Elec       q    Type
REMARK                         _______ _______ _______ _____ _____    ______ ____
ROOT
ATOM      5  C   UNL     1       4.558   3.348   0.000  0.00  0.00    +0.085 A 
ATOM      6  C   UNL     1       5.308   2.049   0.000  0.00  0.00    +0.066 A 
ATOM      7  C   UNL     1       6.808   2.049   0.000  0.00  0.00    +0.022 A 
ATOM      8  C   UNL     1       7.558   3.348   0.000  0.00  0.00    +0.003 A 
ATOM      9  C   UNL     1       6.808   4.647   0.000  0.00  0.00    +0.022 A 
ATOM     10 CL   UNL     1       4.558   0.750   0.000  0.00  0.00    -0.081 Cl
ATOM     11  C   UNL     1       5.308   4.647   0.000  0.00  0.00    +0.066 A 
ATOM     12 CL   UNL     1       4.558   5.946   0.000  0.00  0.00    -0.081 Cl
ENDROOT
BRANCH   5   4
ATOM      1  N   UNL     1       0.750   4.098   0.000  0.00  0.00    -0.230 NA
ATOM      2  C   UNL     1       0.750   2.598   0.000  0.00  0.00    +0.131 A 
ATOM      3  C   UNL     1       2.177   2.135   0.000  0.00  0.00    +0.113 A 
ATOM      4  N   UNL     1       3.058   3.348   0.000  0.00  0.00    -0.292 N 
ATOM     13  C   UNL     1       2.177   4.562   0.000  0.00  0.00    +0.170 A 
BRANCH  13  14
ATOM     14  S   UNL     1       2.640   5.988   0.000  0.00  0.00    -0.105 S 
ATOM     15  H   UNL     1       3.970   6.271   0.000  0.00  0.00    +0.110 HD
ENDBRANCH  13  14
ENDBRANCH   5   4
TORSDOF 2