REMARK  Name = 31712
REMARK  2 active torsions:
REMARK  status: ('A' for Active; 'I' for Inactive)
REMARK    1  A    between atoms: CA_9  and  C_12
REMARK    2  A    between atoms: C_12  and  OXT_14
REMARK                            x       y       z     vdW  Elec       q    Type
REMARK                         _______ _______ _______ _____ _____    ______ ____
ROOT
ATOM      1  O   UNL     1      -1.025   6.274   0.000  0.00  0.00    -0.265 OA
ATOM      2  C   UNL     1       0.275   5.524   0.000  0.00  0.00    +0.290 A 
ATOM      3  C   UNL     1       1.574   6.274   0.000  0.00  0.00    +0.218 A 
ATOM      4  CA  UNL     1       2.873   5.524   0.000  0.00  0.00    +0.169 A 
ATOM      9  N   UNL     1       2.873   4.024   0.000  0.00  0.00    -0.300 N 
ATOM     10  H   UNL     1       4.172   3.275   0.000  0.00  0.00    +0.171 HD
ATOM     11  C   UNL     1       1.574   3.275   0.000  0.00  0.00    +0.327 A 
ATOM     12  O   UNL     1       1.574   1.775   0.000  0.00  0.00    -0.247 OA
ATOM     13  F   UNL     1       1.574   7.774   0.000  0.00  0.00    -0.197 F 
ATOM     14  N   UNL     1       0.275   4.024   0.000  0.00  0.00    -0.273 N 
ATOM     15  H   UNL     1      -1.025   3.275   0.000  0.00  0.00    +0.174 HD
ENDROOT
BRANCH   4   5
ATOM      5  C   UNL     1       4.172   6.274   0.000  0.00  0.00    +0.356 C 
ATOM      8  O   UNL     1       5.471   5.524   0.000  0.00  0.00    -0.243 OA
BRANCH   5   6
ATOM      6  OXT UNL     1       4.172   7.774   0.000  0.00  0.00    -0.476 OA
ATOM      7  HXT UNL     1       4.983   8.243   0.000  0.00  0.00    +0.295 HD
ENDBRANCH   5   6
ENDBRANCH   4   5
TORSDOF 2