REMARK  Name = 326184
REMARK  2 active torsions:
REMARK  status: ('A' for Active; 'I' for Inactive)
REMARK    1  A    between atoms: C_9  and  C_10
REMARK    2  A    between atoms: C_15  and  N_22
REMARK                            x       y       z     vdW  Elec       q    Type
REMARK                         _______ _______ _______ _____ _____    ______ ____
ROOT
ATOM      7  C   UNL     1       6.874   3.164   0.000  0.00  0.00    +0.250 A 
ATOM      8  O   UNL     1       7.756   1.950   0.000  0.00  0.00    -0.405 OA
ATOM      9  C   UNL     1       9.182   2.414   0.000  0.00  0.00    +0.312 A 
ATOM     10  N   UNL     1      10.396   1.532   0.000  0.00  0.00    -0.268 N 
ATOM     11  H   UNL     1      10.293   0.553   0.000  0.00  0.00    +0.157 HD
ATOM     19  N   UNL     1       9.182   3.914   0.000  0.00  0.00    -0.092 NA
ATOM     20  N   UNL     1       7.756   4.377   0.000  0.00  0.00    -0.106 NA
ENDROOT
BRANCH   7   6
ATOM      1  O   UNL     1       0.907   2.852   0.000  0.00  0.00    -0.453 OA
ATOM      2  C   UNL     1       0.750   1.360   0.000  0.00  0.00    +0.466 C 
ATOM      3  O   UNL     1       2.120   0.750   0.000  0.00  0.00    -0.453 OA
ATOM      4  C   UNL     1       3.124   1.865   0.000  0.00  0.00    +0.167 A 
ATOM      5  C   UNL     1       4.624   1.865   0.000  0.00  0.00    +0.062 A 
ATOM      6  C   UNL     1       5.374   3.164   0.000  0.00  0.00    +0.042 A 
ATOM     21  C   UNL     1       4.624   4.463   0.000  0.00  0.00    +0.017 A 
ATOM     22  C   UNL     1       3.124   4.463   0.000  0.00  0.00    +0.050 A 
ATOM     23  C   UNL     1       2.374   3.164   0.000  0.00  0.00    +0.166 A 
ENDBRANCH   7   6
BRANCH  10  12
ATOM     12  C   UNL     1      11.766   2.142   0.000  0.00  0.00    +0.035 A 
ATOM     13  C   UNL     1      12.980   1.261   0.000  0.00  0.00    +0.025 A 
ATOM     14  C   UNL     1      14.350   1.871   0.000  0.00  0.00    +0.022 A 
ATOM     15  C   UNL     1      14.507   3.362   0.000  0.00  0.00    +0.041 A 
ATOM     16 CL   UNL     1      15.877   3.973   0.000  0.00  0.00    -0.084 Cl
ATOM     17  C   UNL     1      13.293   4.244   0.000  0.00  0.00    +0.022 A 
ATOM     18  C   UNL     1      11.923   3.634   0.000  0.00  0.00    +0.025 A 
ENDBRANCH  10  12
TORSDOF 2