REMARK  Name = 318799
REMARK  4 active torsions:
REMARK  status: ('A' for Active; 'I' for Inactive)
REMARK    1  A    between atoms: C_2  and  C_14
REMARK    2  A    between atoms: C_3  and  O_15
REMARK    3  A    between atoms: C_7  and  O_16
REMARK    4  A    between atoms: C_9  and  N_11
REMARK                            x       y       z     vdW  Elec       q    Type
REMARK                         _______ _______ _______ _____ _____    ______ ____
ROOT
ATOM      3  C   UNL     1      -1.801  -2.016   0.000  0.00  0.00    +0.166 C 
ATOM      4  C   UNL     1      -0.510  -2.779   0.000  0.00  0.00    +0.177 C 
ATOM      7  C   UNL     1       0.615  -1.787   0.000  0.00  0.00    +0.195 C 
ATOM     10  C   UNL     1       0.019  -0.410   0.000  0.00  0.00    +0.255 C 
ATOM     21  O   UNL     1      -1.474  -0.552   0.000  0.00  0.00    -0.347 OA
ENDROOT
BRANCH  10  11
ATOM     11  N   UNL     1       0.783   0.881   0.000  0.00  0.00    -0.270 N 
ATOM     12  C   UNL     1       2.283   0.865   0.000  0.00  0.00    +0.096 A 
ATOM     13  C   UNL     1       3.046   2.156   0.000  0.00  0.00    +0.061 A 
ATOM     14  C   UNL     1       2.310   3.463   0.000  0.00  0.00    +0.123 A 
ATOM     15  N   UNL     1       3.073   4.754   0.000  0.00  0.00    -0.343 N 
ATOM     16  H   UNL     1       2.590   5.612   0.000  0.00  0.00    +0.144 HD
ATOM     17  H   UNL     1       4.058   4.744   0.000  0.00  0.00    +0.144 HD
ATOM     18  N   UNL     1       0.810   3.479   0.000  0.00  0.00    -0.178 NA
ATOM     19  C   UNL     1       0.046   2.188   0.000  0.00  0.00    +0.352 A 
ATOM     20  O   UNL     1      -1.454   2.203   0.000  0.00  0.00    -0.244 OA
ENDBRANCH  10  11
BRANCH   3   2
ATOM      1 CL   UNL     1      -3.350  -4.101   0.000  0.00  0.00    -0.123 Cl
ATOM      2  C   UNL     1      -3.178  -2.611   0.000  0.00  0.00    +0.143 C 
ENDBRANCH   3   2
BRANCH   4   5
ATOM      5  O   UNL     1      -0.369  -4.272   0.000  0.00  0.00    -0.386 OA
ATOM      6  H   UNL     1      -1.159  -4.834   0.000  0.00  0.00    +0.210 HD
ENDBRANCH   4   5
BRANCH   7   8
ATOM      8  O   UNL     1      -0.849  -1.460   0.000  0.00  0.00    -0.385 OA
ATOM      9  H   UNL     1      -1.139  -0.534   0.000  0.00  0.00    +0.210 HD
ENDBRANCH   7   8
TORSDOF 4