REMARK  Name = 321496
REMARK  8 active torsions:
REMARK  status: ('A' for Active; 'I' for Inactive)
REMARK    1  A    between atoms: C_7  and  C_8
REMARK    2  A    between atoms: C_10  and  N_24
REMARK    3  A    between atoms: C_12  and  C_25
REMARK    4  A    between atoms: C_13  and  C_26
REMARK    5  A    between atoms: C_13  and  C_27
REMARK    6  A    between atoms: C_16  and  N_20
REMARK    7  A    between atoms: C_17  and  C_28
REMARK    8  A    between atoms: C_17  and  C_29
REMARK                            x       y       z     vdW  Elec       q    Type
REMARK                         _______ _______ _______ _____ _____    ______ ____
ROOT
ATOM      8  C   UNL     1       0.123  -0.675   0.000  0.00  0.00    +0.042 A 
ATOM      9  C   UNL     1       1.110  -1.806   0.000  0.00  0.00    -0.016 A 
ATOM     10  C   UNL     1       2.582  -1.517   0.000  0.00  0.00    -0.034 A 
ATOM     11  C   UNL     1       3.311  -2.828   0.000  0.00  0.00    -0.009 C 
ATOM     12  C   UNL     1       4.332  -1.729   0.000  0.00  0.00    +0.016 C 
ATOM     13  C   UNL     1       4.410  -3.849   0.000  0.00  0.00    +0.016 C 
ATOM     14  C   UNL     1       2.290  -3.926   0.000  0.00  0.00    +0.022 C 
ATOM     15  C   UNL     1       3.067  -0.098   0.000  0.00  0.00    +0.028 A 
ATOM     16  C   UNL     1       2.081   1.033   0.000  0.00  0.00    +0.035 A 
ATOM     22  C   UNL     1       0.929  -3.295   0.000  0.00  0.00    -0.007 C 
ATOM     23  C   UNL     1       0.444  -4.714   0.000  0.00  0.00    +0.016 C 
ATOM     24  C   UNL     1      -0.533  -2.960   0.000  0.00  0.00    +0.016 C 
ATOM     25  C   UNL     1       0.609   0.744   0.000  0.00  0.00    -0.008 A 
ATOM     26  C   UNL     1      -0.377   1.874   0.000  0.00  0.00    +0.047 C 
ENDROOT
BRANCH  16  17
ATOM     17  N   UNL     1       2.567   2.452   0.000  0.00  0.00    -0.330 N 
ATOM     18  C   UNL     1       4.001   2.893   0.000  0.00  0.00    +0.105 C 
ATOM     19  C   UNL     1       4.024   4.393   0.000  0.00  0.00    +0.020 C 
ATOM     20  C   UNL     1       2.605   4.878   0.000  0.00  0.00    +0.020 C 
ATOM     21  C   UNL     1       1.704   3.679   0.000  0.00  0.00    +0.105 C 
ENDBRANCH  16  17
BRANCH   8   6
ATOM      5  C   UNL     1      -2.123   0.320   0.000  0.00  0.00    +0.250 C 
ATOM      6  N   UNL     1      -1.349  -0.964   0.000  0.00  0.00    -0.281 N 
ATOM      7  H   UNL     1      -1.747  -1.864   0.000  0.00  0.00    +0.155 HD
ATOM     27  O   UNL     1      -1.399   1.633   0.000  0.00  0.00    -0.270 OA
BRANCH   5   4
ATOM      1  C   UNL     1      -6.622   0.233   0.000  0.00  0.00    +0.001 A 
ATOM      2  C   UNL     1      -5.848  -1.051   0.000  0.00  0.00    +0.001 A 
ATOM      3  C   UNL     1      -4.348  -1.022   0.000  0.00  0.00    +0.014 A 
ATOM      4  C   UNL     1      -3.623   0.291   0.000  0.00  0.00    +0.055 A 
ATOM     28  C   UNL     1      -4.398   1.575   0.000  0.00  0.00    +0.053 A 
ATOM     29 CL   UNL     1      -3.673   2.889   0.000  0.00  0.00    -0.083 Cl
ATOM     30  C   UNL     1      -5.898   1.547   0.000  0.00  0.00    +0.021 A 
ENDBRANCH   5   4
ENDBRANCH   8   6
TORSDOF 3