REMARK  Name = 3193
REMARK  5 active torsions:
REMARK  status: ('A' for Active; 'I' for Inactive)
REMARK    1  A    between atoms: C_4  and  S_14
REMARK    2  A    between atoms: C_6  and  N_13
REMARK    3  A    between atoms: C_12  and  C_18
REMARK    4  A    between atoms: S_14  and  N_17
REMARK    5  A    between atoms: N_17  and  C_18
REMARK                            x       y       z     vdW  Elec       q    Type
REMARK                         _______ _______ _______ _____ _____    ______ ____
ROOT
ATOM      6  S   UNL     1       4.721   5.324   0.000  0.00  0.00    +0.058 S 
ATOM      7  O   UNL     1       3.971   6.623   0.000  0.00  0.00    -0.153 OA
ATOM      8  O   UNL     1       5.471   4.024   0.000  0.00  0.00    -0.153 OA
ENDROOT
BRANCH   6   9
ATOM      9  C   UNL     1       3.422   4.574   0.000  0.00  0.00    +0.105 A 
ATOM     10  C   UNL     1       3.422   3.074   0.000  0.00  0.00    +0.030 A 
ATOM     11  C   UNL     1       2.123   2.324   0.000  0.00  0.00    +0.024 A 
ATOM     12  C   UNL     1       0.824   3.074   0.000  0.00  0.00    +0.025 A 
ATOM     16  C   UNL     1       0.824   4.574   0.000  0.00  0.00    +0.024 A 
ATOM     17  C   UNL     1       2.123   5.324   0.000  0.00  0.00    +0.030 A 
BRANCH  12  13
ATOM     13  N   UNL     1      -0.475   2.324   0.000  0.00  0.00    -0.358 N 
ATOM     14  H   UNL     1      -0.476   1.339   0.000  0.00  0.00    +0.142 HD
ATOM     15  H   UNL     1      -1.328   2.816   0.000  0.00  0.00    +0.142 HD
ENDBRANCH  12  13
ENDBRANCH   6   9
BRANCH   6   4
ATOM      4  N   UNL     1       6.020   6.074   0.000  0.00  0.00    -0.187 NA
ATOM      5  H   UNL     1       6.903   5.564   0.000  0.00  0.00    +0.148 HD
BRANCH   4   3
ATOM      3  C   UNL     1       6.020   7.574   0.000  0.00  0.00    +0.137 C 
BRANCH   3   2
ATOM      1  O   UNL     1       7.319   9.824   0.000  0.00  0.00    -0.375 OA
ATOM      2  C   UNL     1       7.319   8.324   0.000  0.00  0.00    +0.134 C 
ATOM     18  C   UNL     1       8.618   7.574   0.000  0.00  0.00    +0.033 C 
ATOM     19  C   UNL     1       9.917   8.324   0.000  0.00  0.00    +0.005 C 
ATOM     20  C   UNL     1       9.917   9.824   0.000  0.00  0.00    +0.028 C 
ATOM     21  C   UNL     1       8.618  10.574   0.000  0.00  0.00    +0.160 C 
ENDBRANCH   3   2
ENDBRANCH   4   3
ENDBRANCH   6   4
TORSDOF 5