REMARK  Name = 326644
REMARK  3 active torsions:
REMARK  status: ('A' for Active; 'I' for Inactive)
REMARK    1  A    between atoms: N_4  and  C_6
REMARK    2  A    between atoms: C_7  and  C_18
REMARK    3  A    between atoms: N_10  and  C_11
REMARK                            x       y       z     vdW  Elec       q    Type
REMARK                         _______ _______ _______ _____ _____    ______ ____
ROOT
ATOM      5  C   UNL     1       5.515  -3.671   0.000  0.00  0.00    +0.159 A 
ATOM      6  N   UNL     1       6.396  -4.884   0.000  0.00  0.00    -0.215 N 
ATOM     14  N   UNL     1       7.823  -4.421   0.000  0.00  0.00    -0.172 NA
ATOM     15  C   UNL     1       7.823  -2.921   0.000  0.00  0.00    +0.155 A 
ATOM     16  C   UNL     1       6.396  -2.457   0.000  0.00  0.00    +0.114 A 
ENDROOT
BRANCH   6   7
ATOM      7  C   UNL     1       5.933  -6.311   0.000  0.00  0.00    +0.069 A 
ATOM      8  C   UNL     1       6.937  -7.426   0.000  0.00  0.00    +0.047 A 
ATOM      9  C   UNL     1       6.473  -8.852   0.000  0.00  0.00    +0.043 A 
ATOM     10 CL   UNL     1       7.477  -9.967   0.000  0.00  0.00    -0.083 Cl
ATOM     11  C   UNL     1       5.006  -9.164   0.000  0.00  0.00    +0.020 A 
ATOM     12  C   UNL     1       4.002  -8.050   0.000  0.00  0.00    +0.003 A 
ATOM     13  C   UNL     1       4.466  -6.623   0.000  0.00  0.00    +0.028 A 
ENDBRANCH   6   7
BRANCH   5   4
ATOM      1  C   UNL     1       1.706  -2.921   0.000  0.00  0.00    +0.019 A 
ATOM      2  C   UNL     1       1.706  -4.421   0.000  0.00  0.00    +0.019 A 
ATOM      3  C   UNL     1       3.133  -4.884   0.000  0.00  0.00    +0.093 A 
ATOM      4  N   UNL     1       4.015  -3.671   0.000  0.00  0.00    -0.307 N 
ATOM     19  C   UNL     1       3.133  -2.457   0.000  0.00  0.00    +0.093 A 
ENDBRANCH   5   4
BRANCH  16  17
ATOM     17  C   UNL     1       5.933  -1.031   0.000  0.00  0.00    +0.104 C 
ATOM     18  N   UNL     1       5.469   0.396   0.000  0.00  0.00    -0.191 NA
ENDBRANCH  16  17
TORSDOF 3