REMARK  Name = 326757
REMARK  6 active torsions:
REMARK  status: ('A' for Active; 'I' for Inactive)
REMARK    1  A    between atoms: C_1  and  O_23
REMARK    2  A    between atoms: C_6  and  C_7
REMARK    3  A    between atoms: C_7  and  C_9
REMARK    4  A    between atoms: C_14  and  C_16
REMARK    5  A    between atoms: C_16  and  C_17
REMARK    6  A    between atoms: C_22  and  O_24
REMARK                            x       y       z     vdW  Elec       q    Type
REMARK                         _______ _______ _______ _____ _____    ______ ____
ROOT
ATOM      8  C   UNL     1       5.250   5.946   0.000  0.00  0.00    +0.022 A 
ATOM      9  C   UNL     1       6.000   4.647   0.000  0.00  0.00    +0.012 A 
ATOM     10  C   UNL     1       7.500   4.647   0.000  0.00  0.00    +0.012 A 
ATOM     11  C   UNL     1       8.250   5.946   0.000  0.00  0.00    +0.022 A 
ATOM     22  C   UNL     1       7.500   7.245   0.000  0.00  0.00    +0.012 A 
ATOM     23  C   UNL     1       6.000   7.245   0.000  0.00  0.00    +0.012 A 
ENDROOT
BRANCH   8   7
ATOM      7  C   UNL     1       3.750   5.946   0.000  0.00  0.00    +0.193 C 
ATOM     24  O   UNL     1       3.000   7.245   0.000  0.00  0.00    -0.287 OA
BRANCH   7   6
ATOM      1  C   UNL     1       1.500   2.049   0.000  0.00  0.00    +0.117 A 
ATOM      4  C   UNL     1       3.000   2.049   0.000  0.00  0.00    +0.046 A 
ATOM      5  C   UNL     1       3.750   3.348   0.000  0.00  0.00    +0.015 A 
ATOM      6  C   UNL     1       3.000   4.647   0.000  0.00  0.00    +0.022 A 
ATOM     25  C   UNL     1       1.500   4.647   0.000  0.00  0.00    +0.015 A 
ATOM     26  C   UNL     1       0.750   3.348   0.000  0.00  0.00    +0.046 A 
BRANCH   1   2
ATOM      2  O   UNL     1       0.750   0.750   0.000  0.00  0.00    -0.507 OA
ATOM      3  H   UNL     1      -0.187   0.750   0.000  0.00  0.00    +0.292 HD
ENDBRANCH   1   2
ENDBRANCH   7   6
ENDBRANCH   8   7
BRANCH  11  12
ATOM     12  C   UNL     1       9.750   5.946   0.000  0.00  0.00    +0.193 C 
ATOM     21  O   UNL     1      10.500   7.245   0.000  0.00  0.00    -0.287 OA
BRANCH  12  13
ATOM     13  C   UNL     1      10.500   4.647   0.000  0.00  0.00    +0.022 A 
ATOM     14  C   UNL     1       9.750   3.348   0.000  0.00  0.00    +0.015 A 
ATOM     15  C   UNL     1      10.500   2.049   0.000  0.00  0.00    +0.046 A 
ATOM     16  C   UNL     1      12.000   2.049   0.000  0.00  0.00    +0.117 A 
ATOM     19  C   UNL     1      12.750   3.348   0.000  0.00  0.00    +0.046 A 
ATOM     20  C   UNL     1      12.000   4.647   0.000  0.00  0.00    +0.015 A 
BRANCH  16  17
ATOM     17  O   UNL     1      12.750   0.750   0.000  0.00  0.00    -0.507 OA
ATOM     18  H   UNL     1      12.281  -0.061   0.000  0.00  0.00    +0.292 HD
ENDBRANCH  16  17
ENDBRANCH  12  13
ENDBRANCH  11  12
TORSDOF 6