REMARK  Name = 31748
REMARK  5 active torsions:
REMARK  status: ('A' for Active; 'I' for Inactive)
REMARK    1  A    between atoms: C_3  and  AS_9
REMARK    2  A    between atoms: C_5  and  O_12
REMARK    3  A    between atoms: AS_9  and  O_10
REMARK    4  A    between atoms: AS_9  and  O_11
REMARK    5  A    between atoms: O_12  and  C_13
REMARK                            x       y       z     vdW  Elec       q    Type
REMARK                         _______ _______ _______ _____ _____    ______ ____
ROOT
ATOM      1  I   UNL     1       2.250  -8.250   0.000  0.00  0.00    +0.000 I 
ATOM      2  C   UNL     1       2.250  -6.750   0.000  0.00  0.00    +0.000 A 
ATOM      3  C   UNL     1       0.951  -6.000   0.000  0.00  0.00    +0.000 A 
ATOM      4  C   UNL     1       0.951  -4.500   0.000  0.00  0.00    +0.000 A 
ATOM      5  C   UNL     1       2.250  -3.750   0.000  0.00  0.00    +0.000 A 
ATOM     12  C   UNL     1       3.549  -4.500   0.000  0.00  0.00    +0.000 A 
ATOM     15  C   UNL     1       3.549  -6.000   0.000  0.00  0.00    +0.000 A 
ENDROOT
BRANCH   5   6
ATOM      6 AS   UNL     1       2.250  -2.250   0.000  0.00  0.00    +0.000 As
ATOM     11  O   UNL     1       3.750  -2.250   0.000  0.00  0.00    +0.000 OA
BRANCH   6   7
ATOM      7  O   UNL     1       0.750  -2.250   0.000  0.00  0.00    +0.000 OA
ATOM      8  H   UNL     1       0.265  -1.410   0.000  0.00  0.00    +0.000 HD
ENDBRANCH   6   7
BRANCH   6   9
ATOM      9  O   UNL     1       2.250  -0.750   0.000  0.00  0.00    +0.000 OA
ATOM     10  H   UNL     1       3.090  -0.265   0.000  0.00  0.00    +0.000 HD
ENDBRANCH   6   9
ENDBRANCH   5   6
BRANCH  12  13
ATOM     13  O   UNL     1       4.848  -3.750   0.000  0.00  0.00    +0.000 OA
ATOM     14  C   UNL     1       6.147  -4.500   0.000  0.00  0.00    +0.000 C 
ENDBRANCH  12  13
TORSDOF 4