REMARK  Name = 31703
REMARK  7 active torsions:
REMARK  status: ('A' for Active; 'I' for Inactive)
REMARK    1  A    between atoms: C_3  and  C_22
REMARK    2  A    between atoms: C_8  and  C_19
REMARK    3  A    between atoms: C_11  and  N_18
REMARK    4  A    between atoms: O_13  and  C_14
REMARK    5  A    between atoms: O_13  and  C_16
REMARK    6  A    between atoms: C_14  and  C_15
REMARK    7  A    between atoms: C_19  and  C_21
REMARK                            x       y       z     vdW  Elec       q    Type
REMARK                         _______ _______ _______ _____ _____    ______ ____
ROOT
ATOM      7  C   UNL     1      -1.848 -12.000   0.000  0.00  0.00    +0.022 A 
ATOM      8  C   UNL     1      -1.848 -13.500   0.000  0.00  0.00    +0.013 A 
ATOM      9  C   UNL     1      -3.147 -14.250   0.000  0.00  0.00    +0.024 A 
ATOM     10  C   UNL     1      -4.446 -13.500   0.000  0.00  0.00    +0.036 A 
ATOM     18  C   UNL     1      -4.446 -12.000   0.000  0.00  0.00    +0.024 A 
ATOM     19  C   UNL     1      -3.147 -11.250   0.000  0.00  0.00    +0.013 A 
ENDROOT
BRANCH  10  11
ATOM     11  N   UNL     1      -5.745 -14.250   0.000  0.00  0.00    -0.251 N 
ATOM     12  H   UNL     1      -5.745 -15.234   0.000  0.00  0.00    +0.158 HD
ATOM     13  C   UNL     1      -7.044 -13.500   0.000  0.00  0.00    +0.405 C 
ATOM     14  O   UNL     1      -7.044 -12.000   0.000  0.00  0.00    -0.226 OA
BRANCH  13  15
ATOM     15  O   UNL     1      -8.343 -14.250   0.000  0.00  0.00    -0.450 OA
BRANCH  15  16
ATOM     16  C   UNL     1      -9.642 -13.500   0.000  0.00  0.00    +0.230 C 
ATOM     17  C   UNL     1     -10.941 -14.250   0.000  0.00  0.00    +0.048 C 
ENDBRANCH  15  16
ENDBRANCH  13  15
ENDBRANCH  10  11
BRANCH   7   5
ATOM      5  C   UNL     1      -0.549 -11.250   0.000  0.00  0.00    +0.186 C 
ATOM      6  O   UNL     1      -0.549  -9.750   0.000  0.00  0.00    -0.287 OA
BRANCH   5   4
ATOM      3  C   UNL     1       0.750 -13.500   0.000  0.00  0.00    +0.011 C 
ATOM      4  C   UNL     1       0.750 -12.000   0.000  0.00  0.00    +0.052 C 
BRANCH   3   2
ATOM      1  C   UNL     1       3.348 -13.500   0.000  0.00  0.00    +0.008 A 
ATOM      2  C   UNL     1       2.049 -14.250   0.000  0.00  0.00    -0.025 A 
ATOM     20  C   UNL     1       2.049 -15.750   0.000  0.00  0.00    +0.008 A 
ATOM     21  C   UNL     1       3.348 -16.500   0.000  0.00  0.00    +0.001 A 
ATOM     22  C   UNL     1       4.647 -15.750   0.000  0.00  0.00    +0.000 A 
ATOM     23  C   UNL     1       4.647 -14.250   0.000  0.00  0.00    +0.001 A 
ENDBRANCH   3   2
ENDBRANCH   5   4
ENDBRANCH   7   5
TORSDOF 6