REMARK  Name = 31741
REMARK  3 active torsions:
REMARK  status: ('A' for Active; 'I' for Inactive)
REMARK    1  A    between atoms: C_4  and  AS_8
REMARK    2  A    between atoms: AS_8  and  O_9
REMARK    3  A    between atoms: AS_8  and  O_10
REMARK                            x       y       z     vdW  Elec       q    Type
REMARK                         _______ _______ _______ _____ _____    ______ ____
ROOT
ATOM      1  N   UNL     1      -4.441  -3.430   0.000  0.00  0.00    +0.000 NA
ATOM      2  C   UNL     1      -4.441  -4.930   0.000  0.00  0.00    +0.000 A 
ATOM      3  C   UNL     1      -3.142  -5.680   0.000  0.00  0.00    +0.000 A 
ATOM      4  C   UNL     1      -1.843  -4.930   0.000  0.00  0.00    +0.000 A 
ATOM      5  C   UNL     1      -1.843  -3.430   0.000  0.00  0.00    +0.000 A 
ATOM     12  C   UNL     1      -3.142  -2.680   0.000  0.00  0.00    +0.000 A 
ENDROOT
BRANCH   5   6
ATOM      6 AS   UNL     1       0.301  -2.192   0.000  0.00  0.00    +0.000 As
ATOM     11  O   UNL     1       1.361  -3.253   0.000  0.00  0.00    +0.000 OA
BRANCH   6   7
ATOM      7  O   UNL     1      -1.199  -2.192   0.000  0.00  0.00    +0.000 OA
ATOM      8  H   UNL     1      -1.684  -1.352   0.000  0.00  0.00    +0.000 HD
ENDBRANCH   6   7
BRANCH   6   9
ATOM      9  O   UNL     1       0.689  -0.744   0.000  0.00  0.00    +0.000 OA
ATOM     10  H   UNL     1       1.626  -0.492   0.000  0.00  0.00    +0.000 HD
ENDBRANCH   6   9
ENDBRANCH   5   6
TORSDOF 3