REMARK  Name = 317605
REMARK  8 active torsions:
REMARK  status: ('A' for Active; 'I' for Inactive)
REMARK    1  A    between atoms: C_18  and  O_20
REMARK    2  A    between atoms: C_19  and  C_22
REMARK    3  A    between atoms: O_20  and  C_23
REMARK    4  A    between atoms: N_21  and  C_22
REMARK    5  A    between atoms: N_21  and  C_24
REMARK    6  A    between atoms: N_21  and  C_26
REMARK    7  A    between atoms: C_24  and  C_25
REMARK    8  A    between atoms: C_26  and  C_27
REMARK                            x       y       z     vdW  Elec       q    Type
REMARK                         _______ _______ _______ _____ _____    ______ ____
ROOT
ATOM      1 CL   UNL     1      -1.025   3.275   0.000  0.00  0.00    -0.083 Cl
ATOM      2  C   UNL     1       0.275   4.024   0.000  0.00  0.00    +0.043 A 
ATOM      3  C   UNL     1       1.574   3.275   0.000  0.00  0.00    +0.048 A 
ATOM      4  C   UNL     1       2.873   4.024   0.000  0.00  0.00    +0.074 A 
ATOM      5  N   UNL     1       4.172   3.275   0.000  0.00  0.00    -0.254 NA
ATOM      6  C   UNL     1       5.471   4.024   0.000  0.00  0.00    +0.122 A 
ATOM      7  C   UNL     1       5.471   5.524   0.000  0.00  0.00    +0.026 A 
ATOM      8  C   UNL     1       6.585   6.528   0.000  0.00  0.00    +0.012 A 
ATOM      9  C   UNL     1       8.077   6.372   0.000  0.00  0.00    +0.056 A 
ATOM     10  C   UNL     1       8.959   7.585   0.000  0.00  0.00    +0.125 A 
ATOM     13  C   UNL     1       8.349   8.955   0.000  0.00  0.00    +0.010 A 
ATOM     20  C   UNL     1       6.857   9.112   0.000  0.00  0.00    +0.034 A 
ATOM     21  C   UNL     1       5.975   7.899   0.000  0.00  0.00    +0.048 A 
ATOM     22  N   UNL     1       4.484   7.742   0.000  0.00  0.00    -0.354 N 
ATOM     23  H   UNL     1       3.480   8.857   0.000  0.00  0.00    +0.166 HD
ATOM     24  C   UNL     1       4.172   6.274   0.000  0.00  0.00    +0.058 A 
ATOM     25  C   UNL     1       2.873   5.524   0.000  0.00  0.00    +0.024 A 
ATOM     26  C   UNL     1       1.573   6.274   0.000  0.00  0.00    +0.013 A 
ATOM     27  C   UNL     1       0.275   5.524   0.000  0.00  0.00    +0.021 A 
ENDROOT
BRANCH  10  11
ATOM     11  O   UNL     1      10.451   7.428   0.000  0.00  0.00    -0.495 OA
ATOM     12  C   UNL     1      11.061   6.058   0.000  0.00  0.00    +0.277 C 
ENDBRANCH  10  11
BRANCH  13  14
ATOM     14  C   UNL     1       9.230  10.169   0.000  0.00  0.00    +0.123 C 
BRANCH  14  15
ATOM     15  N   UNL     1      10.722  10.012   0.000  0.00  0.00    -0.299 NA
BRANCH  15  16
ATOM     16  C   UNL     1      11.332   8.642   0.000  0.00  0.00    +0.081 C 
ATOM     17  C   UNL     1      12.824   8.485   0.000  0.00  0.00    +0.020 C 
ENDBRANCH  15  16
BRANCH  15  18
ATOM     18  C   UNL     1      11.604  11.226   0.000  0.00  0.00    +0.081 C 
ATOM     19  C   UNL     1      10.994  12.596   0.000  0.00  0.00    +0.020 C 
ENDBRANCH  15  18
ENDBRANCH  14  15
ENDBRANCH  13  14
TORSDOF 5