REMARK  Name = 319034
REMARK  8 active torsions:
REMARK  status: ('A' for Active; 'I' for Inactive)
REMARK    1  A    between atoms: C_1  and  C_12
REMARK    2  A    between atoms: C_1  and  C_13
REMARK    3  A    between atoms: C_1  and  C_14
REMARK    4  A    between atoms: C_1  and  C_15
REMARK    5  A    between atoms: C_2  and  N_3
REMARK    6  A    between atoms: C_2  and  C_15
REMARK    7  A    between atoms: C_2  and  C_16
REMARK    8  A    between atoms: C_2  and  C_17
REMARK                            x       y       z     vdW  Elec       q    Type
REMARK                         _______ _______ _______ _____ _____    ______ ____
ROOT
ATOM      6  N   UNL     1       5.799   3.348   0.000  0.00  0.00    -0.266 NA
ATOM      7  C   UNL     1       6.549   2.049   0.000  0.00  0.00    +0.192 C 
ATOM      8  N   UNL     1       8.049   2.049   0.000  0.00  0.00    -0.314 N 
ATOM      9  H   UNL     1       8.799   0.750   0.000  0.00  0.00    +0.149 HD
ATOM     10  C   UNL     1       8.799   3.348   0.000  0.00  0.00    +0.132 C 
ATOM     11  S   UNL     1      10.299   3.348   0.000  0.00  0.00    -0.019 S 
ATOM     12  N   UNL     1       8.049   4.647   0.000  0.00  0.00    -0.314 N 
ATOM     13  H   UNL     1       8.799   5.946   0.000  0.00  0.00    +0.149 HD
ATOM     14  C   UNL     1       6.549   4.647   0.000  0.00  0.00    +0.192 C 
ENDROOT
BRANCH   6   3
ATOM      3  C   UNL     1       4.299   3.348   0.000  0.00  0.00    +0.020 C 
ATOM      4  C   UNL     1       4.299   4.848   0.000  0.00  0.00    +0.028 C 
ATOM      5  C   UNL     1       4.299   1.848   0.000  0.00  0.00    +0.028 C 
BRANCH   3   2
ATOM      2  C   UNL     1       2.799   3.348   0.000  0.00  0.00    +0.028 C 
BRANCH   2   1
ATOM      1  C   UNL     1       2.049   4.647   0.000  0.00  0.00    -0.036 C 
ATOM     15  C   UNL     1       0.750   3.897   0.000  0.00  0.00    +0.010 C 
ATOM     16  C   UNL     1       3.348   5.397   0.000  0.00  0.00    +0.010 C 
ATOM     17  C   UNL     1       1.299   5.946   0.000  0.00  0.00    +0.010 C 
ENDBRANCH   2   1
ENDBRANCH   3   2
ENDBRANCH   6   3
TORSDOF 3