REMARK  Name = 99733
REMARK  1 active torsions:
REMARK  status: ('A' for Active; 'I' for Inactive)
REMARK    1  A    between atoms: N_2  and  C_14
REMARK                            x       y       z     vdW  Elec       q    Type
REMARK                         _______ _______ _______ _____ _____    ______ ____
ROOT
ATOM      1  O   UNL     1       1.824   5.250   0.000  0.00  0.00    -0.244 OA
ATOM      2  C   UNL     1       3.123   4.500   0.000  0.00  0.00    +0.353 A 
ATOM      3  N   UNL     1       4.422   5.250   0.000  0.00  0.00    -0.172 NA
ATOM      4  C   UNL     1       5.721   4.500   0.000  0.00  0.00    +0.183 A 
ATOM      5  C   UNL     1       5.721   3.000   0.000  0.00  0.00    +0.174 A 
ATOM      6  C   UNL     1       4.422   2.250   0.000  0.00  0.00    +0.284 A 
ATOM      7  O   UNL     1       4.422   0.750   0.000  0.00  0.00    -0.265 OA
ATOM      8  N   UNL     1       7.021   2.250   0.000  0.00  0.00    -0.225 NA
ATOM      9  C   UNL     1       8.319   3.000   0.000  0.00  0.00    +0.244 A 
ATOM     10  N   UNL     1       8.319   4.500   0.000  0.00  0.00    -0.161 NA
ATOM     11  N   UNL     1       7.021   5.250   0.000  0.00  0.00    -0.257 N 
ATOM     12  H   UNL     1       7.021   6.750   0.000  0.00  0.00    +0.191 HD
ATOM     13  N   UNL     1       3.123   3.000   0.000  0.00  0.00    -0.261 N 
ATOM     14  C   UNL     1       1.824   2.250   0.000  0.00  0.00    +0.157 C 
ENDROOT
TORSDOF 0