REMARK  Name = 97703
REMARK  2 active torsions:
REMARK  status: ('A' for Active; 'I' for Inactive)
REMARK    1  A    between atoms: C_11  and  C_13
REMARK    2  A    between atoms: C_13  and  C_21
REMARK                            x       y       z     vdW  Elec       q    Type
REMARK                         _______ _______ _______ _____ _____    ______ ____
ROOT
ATOM      1  O   UNL     1      -3.987   2.147   0.000  0.00  0.00    -0.445 OA
ATOM      2  C   UNL     1      -3.377   0.776   0.000  0.00  0.00    +0.341 C 
ATOM      3  C   UNL     1      -4.492  -0.227   0.000  0.00  0.00    +0.066 A 
ATOM      4  C   UNL     1      -4.492  -1.727   0.000  0.00  0.00    +0.015 A 
ATOM      5  C   UNL     1      -5.791  -2.477   0.000  0.00  0.00    +0.001 A 
ATOM      6  C   UNL     1      -7.090  -1.727   0.000  0.00  0.00    +0.000 A 
ATOM      7  C   UNL     1      -7.090  -0.227   0.000  0.00  0.00    +0.008 A 
ATOM      8  C   UNL     1      -5.791   0.523   0.000  0.00  0.00    +0.014 A 
ATOM      9  O   UNL     1      -1.910   0.465   0.000  0.00  0.00    -0.245 OA
ATOM     10  C   UNL     1      -5.479   1.990   0.000  0.00  0.00    +0.162 C 
ATOM     11  C   UNL     1      -6.971   2.147   0.000  0.00  0.00    +0.066 C 
ENDROOT
BRANCH  10  12
ATOM     12  C   UNL     1      -5.479   3.490   0.000  0.00  0.00    +0.008 A 
ATOM     13  C   UNL     1      -6.778   4.240   0.000  0.00  0.00    -0.011 A 
ATOM     14  C   UNL     1      -8.077   3.490   0.000  0.00  0.00    +0.009 A 
ATOM     15  C   UNL     1      -9.376   4.240   0.000  0.00  0.00    +0.001 A 
ATOM     16  C   UNL     1      -9.376   5.740   0.000  0.00  0.00    +0.001 A 
ATOM     17  C   UNL     1      -8.077   6.490   0.000  0.00  0.00    +0.008 A 
ATOM     18  C   UNL     1      -6.778   5.740   0.000  0.00  0.00    -0.017 A 
ATOM     19  C   UNL     1      -5.479   6.490   0.000  0.00  0.00    +0.008 A 
ATOM     20  C   UNL     1      -4.180   5.740   0.000  0.00  0.00    +0.001 A 
ATOM     21  C   UNL     1      -4.180   4.240   0.000  0.00  0.00    +0.008 A 
ENDBRANCH  10  12
TORSDOF 1