REMARK  Name = 99027
REMARK  1 active torsions:
REMARK  status: ('A' for Active; 'I' for Inactive)
REMARK    1  A    between atoms: C_5  and  C_13
REMARK                            x       y       z     vdW  Elec       q    Type
REMARK                         _______ _______ _______ _____ _____    ______ ____
ROOT
ATOM      3  C   UNL     1      -7.245  -1.500   0.000  0.00  0.00    -0.033 A 
ATOM      4  C   UNL     1      -7.245  -3.000   0.000  0.00  0.00    +0.005 A 
ATOM      5  C   UNL     1      -5.946  -3.750   0.000  0.00  0.00    +0.012 A 
ATOM      6  C   UNL     1      -4.647  -3.000   0.000  0.00  0.00    +0.018 A 
ATOM      7  C   UNL     1      -3.348  -3.750   0.000  0.00  0.00    +0.018 A 
ATOM      8  C   UNL     1      -2.049  -3.000   0.000  0.00  0.00    +0.092 A 
ATOM      9  C   UNL     1      -2.049  -1.500   0.000  0.00  0.00    +0.337 A 
ATOM     10  O   UNL     1      -0.750  -0.750   0.000  0.00  0.00    -0.245 OA
ATOM     11  O   UNL     1      -3.348  -0.750   0.000  0.00  0.00    -0.422 OA
ATOM     12  C   UNL     1      -4.647  -1.500   0.000  0.00  0.00    +0.139 A 
ATOM     13  C   UNL     1      -5.946  -0.750   0.000  0.00  0.00    +0.051 A 
ENDROOT
BRANCH   3   2
ATOM      1 BR   UNL     1      -9.843  -1.500   0.000  0.00  0.00    -0.087 Br
ATOM      2  C   UNL     1      -8.544  -0.750   0.000  0.00  0.00    +0.115 C 
ENDBRANCH   3   2
TORSDOF 1