REMARK  Name = 97338
REMARK  10 active torsions:
REMARK  status: ('A' for Active; 'I' for Inactive)
REMARK    1  A    between atoms: N_3  and  C_11
REMARK    2  A    between atoms: C_7  and  O_13
REMARK    3  A    between atoms: C_8  and  O_12
REMARK    4  A    between atoms: O_12  and  C_15
REMARK    5  A    between atoms: O_13  and  C_14
REMARK    6  A    between atoms: N_18  and  C_26
REMARK    7  A    between atoms: C_23  and  O_27
REMARK    8  A    between atoms: O_27  and  C_28
REMARK    9  A    between atoms: C_34  and  O_37
REMARK   10  A    between atoms: O_37  and  C_38
REMARK                            x       y       z     vdW  Elec       q    Type
REMARK                         _______ _______ _______ _____ _____    ______ ____
ROOT
ATOM      1  C   UNL     1       2.955   3.765   0.000  0.00  0.00    +0.051 C 
ATOM      2  C   UNL     1       4.254   4.515   0.000  0.00  0.00    -0.034 A 
ATOM      3  C   UNL     1       5.553   3.765   0.000  0.00  0.00    +0.053 A 
ATOM      4  C   UNL     1       6.852   4.515   0.000  0.00  0.00    +0.165 A 
ATOM      7  C   UNL     1       6.852   6.015   0.000  0.00  0.00    +0.204 A 
ATOM     10  C   UNL     1       5.553   6.765   0.000  0.00  0.00    +0.179 A 
ATOM     11  O   UNL     1      10.096   7.873   0.000  0.00  0.00    -0.448 OA
ATOM     12  C   UNL     1      10.723   9.236   0.000  0.00  0.00    +0.170 A 
ATOM     13  C   UNL     1      12.503   9.706   0.000  0.00  0.00    +0.162 A 
ATOM     16  C   UNL     1      13.155  11.057   0.000  0.00  0.00    +0.053 A 
ATOM     17  C   UNL     1      12.131  12.153   0.000  0.00  0.00    -0.038 A 
ATOM     18  C   UNL     1      10.632  12.199   0.000  0.00  0.00    -0.023 A 
ATOM     19  C   UNL     1       9.922  13.521   0.000  0.00  0.00    +0.091 C 
ATOM     20  C   UNL     1       8.845  14.565   0.000  0.00  0.00    +0.058 C 
ATOM     21  C   UNL     1       7.502  15.233   0.000  0.00  0.00    -0.045 A 
ATOM     22  C   UNL     1       6.020  15.464   0.000  0.00  0.00    +0.007 A 
ATOM     23  C   UNL     1       4.538  15.233   0.000  0.00  0.00    +0.046 A 
ATOM     24  C   UNL     1       3.195  14.565   0.000  0.00  0.00    +0.129 A 
ATOM     25  O   UNL     1       2.118  13.521   0.000  0.00  0.00    -0.452 OA
ATOM     26  C   UNL     1       1.408  12.199   0.000  0.00  0.00    +0.170 A 
ATOM     27  C   UNL     1       2.218  10.691   0.000  0.00  0.00    +0.053 A 
ATOM     28  C   UNL     1       1.317   9.236   0.000  0.00  0.00    -0.042 A 
ATOM     29  C   UNL     1      -0.182   9.282   0.000  0.00  0.00    +0.007 A 
ATOM     30  C   UNL     1      -0.892  10.604   0.000  0.00  0.00    +0.050 A 
ATOM     31  C   UNL     1       1.944   7.873   0.000  0.00  0.00    +0.059 C 
ATOM     32  C   UNL     1       2.955   6.765   0.000  0.00  0.00    +0.095 C 
ATOM     33  N   UNL     1       1.656   6.015   0.000  0.00  0.00    -0.298 NA
ATOM     34  C   UNL     1       0.246   6.528   0.000  0.00  0.00    +0.105 C 
ATOM     35  C   UNL     1      -0.102  11.879   0.000  0.00  0.00    +0.162 A 
ATOM     38  C   UNL     1       6.020  13.503   0.000  0.00  0.00    +0.046 A 
ATOM     39  C   UNL     1       7.502  13.733   0.000  0.00  0.00    +0.007 A 
ATOM     40  N   UNL     1      10.711  14.796   0.000  0.00  0.00    -0.298 NA
ATOM     41  C   UNL     1      10.242  16.221   0.000  0.00  0.00    +0.105 C 
ATOM     42  C   UNL     1      12.211  14.750   0.000  0.00  0.00    +0.089 C 
ATOM     43  C   UNL     1      12.920  13.428   0.000  0.00  0.00    +0.051 C 
ATOM     44  C   UNL     1      10.907  10.725   0.000  0.00  0.00    +0.055 A 
ATOM     45  C   UNL     1       4.254   6.015   0.000  0.00  0.00    +0.019 A 
ATOM     46  C   UNL     1       1.656   4.515   0.000  0.00  0.00    +0.089 C 
ENDROOT
BRANCH   4   5
ATOM      5  O   UNL     1       8.151   3.765   0.000  0.00  0.00    -0.491 OA
ATOM      6  C   UNL     1       9.450   4.515   0.000  0.00  0.00    +0.277 C 
ENDBRANCH   4   5
BRANCH   7   8
ATOM      8  O   UNL     1       8.261   6.528   0.000  0.00  0.00    -0.488 OA
ATOM      9  C   UNL     1       9.410   5.564   0.000  0.00  0.00    +0.277 C 
ENDBRANCH   7   8
BRANCH  13  14
ATOM     14  O   UNL     1      13.457   8.549   0.000  0.00  0.00    -0.491 OA
ATOM     15  C   UNL     1      12.932   7.144   0.000  0.00  0.00    +0.277 C 
ENDBRANCH  13  14
BRANCH  35  36
ATOM     36  O   UNL     1      -0.965  13.106   0.000  0.00  0.00    -0.491 OA
ATOM     37  C   UNL     1      -0.333  14.467   0.000  0.00  0.00    +0.277 C 
ENDBRANCH  35  36
TORSDOF 4