REMARK  Name = 99016
REMARK  2 active torsions:
REMARK  status: ('A' for Active; 'I' for Inactive)
REMARK    1  A    between atoms: N_12  and  C_28
REMARK    2  A    between atoms: N_13  and  C_27
REMARK                            x       y       z     vdW  Elec       q    Type
REMARK                         _______ _______ _______ _____ _____    ______ ____
ROOT
ATOM      1  C   UNL     1      -5.542  -0.811   0.000  0.00  0.00    +0.000 A 
ATOM      2  C   UNL     1      -5.542  -1.313   0.000  0.00  0.00    +0.002 A 
ATOM      3  C   UNL     1      -3.902  -2.891   0.000  0.00  0.00    +0.023 A 
ATOM      4  C   UNL     1      -2.372  -1.313   0.000  0.00  0.00    +0.032 A 
ATOM      5  N   UNL     1      -0.762  -2.891   0.000  0.00  0.00    -0.327 N 
ATOM      6  H   UNL     1      -0.762  -3.473   0.000  0.00  0.00    +0.148 HD
ATOM      7  C   UNL     1       0.797  -1.311   0.000  0.00  0.00    +0.153 C 
ATOM      8  C   UNL     1       0.797  -0.791   0.000  0.00  0.00    +0.043 C 
ATOM      9  C   UNL     1       2.377   0.797   0.000  0.00  0.00    -0.016 A 
ATOM     10  C   UNL     1       4.017  -0.791   0.000  0.00  0.00    +0.006 A 
ATOM     11  C   UNL     1       5.547   0.739   0.000  0.00  0.00    +0.000 A 
ATOM     12  C   UNL     1       5.547   1.299   0.000  0.00  0.00    +0.002 A 
ATOM     13  C   UNL     1       4.017   2.909   0.000  0.00  0.00    +0.023 A 
ATOM     14  C   UNL     1       2.377   1.319   0.000  0.00  0.00    +0.032 A 
ATOM     15  N   UNL     1       0.847   2.909   0.000  0.00  0.00    -0.327 N 
ATOM     16  H   UNL     1       0.847   3.382   0.000  0.00  0.00    +0.148 HD
ATOM     17  C   UNL     1      -0.792   1.319   0.000  0.00  0.00    +0.153 C 
ATOM     18  N   UNL     1       0.317   1.319   0.000  0.00  0.00    -0.287 NA
ATOM     19  C   UNL     1      -0.232   0.769   0.000  0.00  0.00    +0.106 C 
ATOM     20  C   UNL     1       0.797   1.319   0.000  0.00  0.00    +0.087 C 
ATOM     21  C   UNL     1       0.797   0.479   0.000  0.00  0.00    +0.031 C 
ATOM     22  C   UNL     1      -0.792   0.799   0.000  0.00  0.00    +0.043 C 
ATOM     23  C   UNL     1      -0.792  -0.311   0.000  0.00  0.00    +0.031 C 
ATOM     24  C   UNL     1      -0.792  -1.311   0.000  0.00  0.00    +0.087 C 
ATOM     25  N   UNL     1      -0.262  -1.311   0.000  0.00  0.00    -0.287 NA
ATOM     26  C   UNL     1      -0.262  -0.841   0.000  0.00  0.00    +0.106 C 
ATOM     27  C   UNL     1      -2.372  -0.791   0.000  0.00  0.00    -0.016 A 
ATOM     28  C   UNL     1      -3.902   0.799   0.000  0.00  0.00    +0.006 A 
ENDROOT
TORSDOF 0