REMARK  Name = 98447
REMARK  4 active torsions:
REMARK  status: ('A' for Active; 'I' for Inactive)
REMARK    1  A    between atoms: C_1  and  N_8
REMARK    2  A    between atoms: C_6  and  C_11
REMARK    3  A    between atoms: C_7  and  C_12
REMARK    4  A    between atoms: C_7  and  C_14
REMARK                            x       y       z     vdW  Elec       q    Type
REMARK                         _______ _______ _______ _____ _____    ______ ____
ROOT
ATOM      1  C   UNL     1       3.000   2.049   0.000  0.00  0.00    +0.273 A 
ATOM      5  C   UNL     1       3.750   0.750   0.000  0.00  0.00    +0.085 A 
ATOM      6  C   UNL     1       5.250   0.750   0.000  0.00  0.00    +0.014 A 
ATOM      7  C   UNL     1       6.000   2.049   0.000  0.00  0.00    -0.023 A 
ATOM     14  C   UNL     1       5.250   3.348   0.000  0.00  0.00    +0.014 A 
ATOM     15  C   UNL     1       3.750   3.348   0.000  0.00  0.00    +0.085 A 
ENDROOT
BRANCH   1   2
ATOM      2  N   UNL     1       1.500   2.049   0.000  0.00  0.00    +0.080 N 
ATOM      3  O   UNL     1       0.750   0.750   0.000  0.00  0.00    +0.041 OA
ATOM      4  O   UNL     1       0.750   3.348   0.000  0.00  0.00    -0.576 OA
ENDBRANCH   1   2
BRANCH   7   8
ATOM      8  C   UNL     1       7.500   2.049   0.000  0.00  0.00    +0.038 C 
ATOM      9  C   UNL     1       8.250   3.348   0.000  0.00  0.00    +0.129 C 
BRANCH   9  10
ATOM     10  C   UNL     1       9.750   3.348   0.000  0.00  0.00    +0.110 C 
ATOM     11  N   UNL     1      11.250   3.348   0.000  0.00  0.00    -0.190 NA
ENDBRANCH   9  10
BRANCH   9  12
ATOM     12  C   UNL     1       7.500   4.647   0.000  0.00  0.00    +0.110 C 
ATOM     13  N   UNL     1       6.750   5.946   0.000  0.00  0.00    -0.190 NA
ENDBRANCH   9  12
ENDBRANCH   7   8
TORSDOF 4