REMARK  Name = 624953
REMARK  21 active torsions:
REMARK  status: ('A' for Active; 'I' for Inactive)
REMARK    1  A    between atoms: C_1  and  C_35
REMARK    2  A    between atoms: C_3  and  O_7
REMARK    3  A    between atoms: C_4  and  O_11
REMARK    4  A    between atoms: C_5  and  O_19
REMARK    5  A    between atoms: C_6  and  O_27
REMARK    6  A    between atoms: O_7  and  C_8
REMARK    7  A    between atoms: C_8  and  C_9
REMARK    8  A    between atoms: O_11  and  C_12
REMARK    9  A    between atoms: C_12  and  C_13
REMARK   10  A    between atoms: O_19  and  C_20
REMARK   11  A    between atoms: C_20  and  C_21
REMARK   12  A    between atoms: O_27  and  C_28
REMARK   13  A    between atoms: C_28  and  C_29
REMARK   14  A    between atoms: C_35  and  O_36
REMARK   15  A    between atoms: O_36  and  SI_37
REMARK   16  A    between atoms: SI_37  and  C_38
REMARK   17  A    between atoms: SI_37  and  C_39
REMARK   18  A    between atoms: SI_37  and  C_40
REMARK   19  A    between atoms: C_40  and  C_41
REMARK   20  A    between atoms: C_40  and  C_42
REMARK   21  A    between atoms: C_40  and  C_43
REMARK                            x       y       z     vdW  Elec       q    Type
REMARK                         _______ _______ _______ _____ _____    ______ ____
ROOT
ATOM      1  C   UNL     1      10.118  -2.525   0.000  0.00  0.00    +0.000 C 
ATOM     11  C   UNL     1       8.819  -3.275   0.000  0.00  0.00    +0.000 C 
ATOM     20  C   UNL     1       8.819  -4.774   0.000  0.00  0.00    +0.000 C 
ATOM     29  C   UNL     1      10.118  -5.524   0.000  0.00  0.00    +0.000 C 
ATOM     38  C   UNL     1      11.417  -4.774   0.000  0.00  0.00    +0.000 C 
ATOM     43  O   UNL     1      11.417  -3.275   0.000  0.00  0.00    +0.000 OA
ENDROOT
BRANCH   1   2
ATOM      2  C   UNL     1      10.118  -1.025   0.000  0.00  0.00    +0.000 C 
BRANCH   2   3
ATOM      3  O   UNL     1       8.819  -0.275   0.000  0.00  0.00    +0.000 OA
BRANCH   3   4
ATOM      4 SI   UNL     1       8.819   1.226   0.000  0.00  0.00    +0.000 Si
ATOM      9  C   UNL     1       7.319   1.226   0.000  0.00  0.00    +0.000 C 
ATOM     10  C   UNL     1      10.319   1.226   0.000  0.00  0.00    +0.000 C 
BRANCH   4   5
ATOM      5  C   UNL     1       8.819   2.725   0.000  0.00  0.00    +0.000 C 
ATOM      6  C   UNL     1       8.819   4.226   0.000  0.00  0.00    +0.000 C 
ATOM      7  C   UNL     1      10.319   2.725   0.000  0.00  0.00    +0.000 C 
ATOM      8  C   UNL     1       7.319   2.725   0.000  0.00  0.00    +0.000 C 
ENDBRANCH   4   5
ENDBRANCH   3   4
ENDBRANCH   2   3
ENDBRANCH   1   2
BRANCH  11  12
ATOM     12  O   UNL     1       7.520  -2.525   0.000  0.00  0.00    +0.000 OA
BRANCH  12  13
ATOM     13  C   UNL     1       7.520  -1.025   0.000  0.00  0.00    +0.000 C 
BRANCH  13  14
ATOM     14  C   UNL     1       6.221  -0.275   0.000  0.00  0.00    +0.000 A 
ATOM     15  C   UNL     1       4.922  -1.025   0.000  0.00  0.00    +0.000 A 
ATOM     16  C   UNL     1       3.623  -0.275   0.000  0.00  0.00    +0.000 A 
ATOM     17  C   UNL     1       3.623   1.226   0.000  0.00  0.00    +0.000 A 
ATOM     18  C   UNL     1       4.922   1.976   0.000  0.00  0.00    +0.000 A 
ATOM     19  C   UNL     1       6.221   1.226   0.000  0.00  0.00    +0.000 A 
ENDBRANCH  13  14
ENDBRANCH  12  13
ENDBRANCH  11  12
BRANCH  20  21
ATOM     21  O   UNL     1      12.355  -2.733   0.000  0.00  0.00    +0.000 OA
BRANCH  21  22
ATOM     22  C   UNL     1      13.654  -3.483   0.000  0.00  0.00    +0.000 C 
BRANCH  22  23
ATOM     23  C   UNL     1      14.954  -2.733   0.000  0.00  0.00    +0.000 A 
ATOM     24  C   UNL     1      16.253  -3.483   0.000  0.00  0.00    +0.000 A 
ATOM     25  C   UNL     1      17.552  -2.733   0.000  0.00  0.00    +0.000 A 
ATOM     26  C   UNL     1      17.552  -1.233   0.000  0.00  0.00    +0.000 A 
ATOM     27  C   UNL     1      16.253  -0.483   0.000  0.00  0.00    +0.000 A 
ATOM     28  C   UNL     1      14.954  -1.233   0.000  0.00  0.00    +0.000 A 
ENDBRANCH  22  23
ENDBRANCH  21  22
ENDBRANCH  20  21
BRANCH  29  30
ATOM     30  O   UNL     1      10.118  -7.024   0.000  0.00  0.00    +0.000 OA
BRANCH  30  31
ATOM     31  C   UNL     1       8.819  -7.774   0.000  0.00  0.00    +0.000 C 
BRANCH  31  32
ATOM     32  C   UNL     1       8.819  -9.274   0.000  0.00  0.00    +0.000 A 
ATOM     33  C   UNL     1      10.118 -10.025   0.000  0.00  0.00    +0.000 A 
ATOM     34  C   UNL     1      10.118 -11.525   0.000  0.00  0.00    +0.000 A 
ATOM     35  C   UNL     1       8.819 -12.275   0.000  0.00  0.00    +0.000 A 
ATOM     36  C   UNL     1       7.520 -11.525   0.000  0.00  0.00    +0.000 A 
ATOM     37  C   UNL     1       7.520 -10.025   0.000  0.00  0.00    +0.000 A 
ENDBRANCH  31  32
ENDBRANCH  30  31
ENDBRANCH  29  30
BRANCH  38  39
ATOM     39  O   UNL     1      12.716  -5.524   0.000  0.00  0.00    +0.000 OA
BRANCH  39  40
ATOM     40  C   UNL     1      12.455  -7.002   0.000  0.00  0.00    +0.000 C 
BRANCH  40  41
ATOM     41  C   UNL     1      13.605  -7.966   0.000  0.00  0.00    +0.000 C 
ATOM     42  C   UNL     1      15.014  -7.453   0.000  0.00  0.00    +0.000 C 
ENDBRANCH  40  41
ENDBRANCH  39  40
ENDBRANCH  38  39
TORSDOF 16