REMARK  Name = 626433
REMARK  1 active torsions:
REMARK  status: ('A' for Active; 'I' for Inactive)
REMARK    1  A    between atoms: C_3  and  C_4
REMARK                            x       y       z     vdW  Elec       q    Type
REMARK                         _______ _______ _______ _____ _____    ______ ____
ROOT
ATOM      1  C   UNL     1       4.036   1.632   0.000  0.00  0.00    +0.403 A 
ATOM      2  N   UNL     1       3.154   2.845   0.000  0.00  0.00    +0.103 N 
ATOM      3  O   UNL     1       1.662   2.689   0.000  0.00  0.00    +0.043 OA
ATOM      4  O   UNL     1       3.764   4.216   0.000  0.00  0.00    -0.575 OA
ATOM      5  N   UNL     1       3.572   0.205   0.000  0.00  0.00    -0.003 NA
ATOM      6  O   UNL     1       4.786  -0.676   0.000  0.00  0.00    -0.346 OA
ATOM      7  C   UNL     1       5.999   0.205   0.000  0.00  0.00    +0.206 A 
ATOM     10  C   UNL     1       5.536   1.632   0.000  0.00  0.00    +0.162 A 
ENDROOT
BRANCH   7   8
ATOM      8  C   UNL     1       7.426  -0.258   0.000  0.00  0.00    +0.299 C 
ATOM      9  O   UNL     1       7.738  -1.726   0.000  0.00  0.00    -0.292 OA
ENDBRANCH   7   8
TORSDOF 1