REMARK  Name = 623746
REMARK  12 active torsions:
REMARK  status: ('A' for Active; 'I' for Inactive)
REMARK    1  A    between atoms: C_2  and  C_20
REMARK    2  A    between atoms: C_3  and  N_6
REMARK    3  A    between atoms: N_6  and  C_7
REMARK    4  A    between atoms: C_10  and  N_13
REMARK    5  A    between atoms: N_13  and  C_14
REMARK    6  A    between atoms: C_18  and  C_25
REMARK    7  A    between atoms: C_20  and  O_22
REMARK    8  A    between atoms: O_22  and  C_23
REMARK    9  A    between atoms: C_23  and  C_24
REMARK   10  A    between atoms: C_25  and  O_27
REMARK   11  A    between atoms: O_27  and  C_28
REMARK   12  A    between atoms: C_28  and  C_29
REMARK                            x       y       z     vdW  Elec       q    Type
REMARK                         _______ _______ _______ _____ _____    ______ ____
ROOT
ATOM      8  C   UNL     1      -1.672   0.397   0.000  0.00  0.00    +0.032 A 
ATOM      9  C   UNL     1      -1.451  -1.087   0.000  0.00  0.00    +0.025 A 
ATOM     10  C   UNL     1      -0.055  -1.637   0.000  0.00  0.00    +0.025 A 
ATOM     11  C   UNL     1       1.119  -0.704   0.000  0.00  0.00    +0.032 A 
ATOM     25  C   UNL     1       0.897   0.780   0.000  0.00  0.00    +0.025 A 
ATOM     26  C   UNL     1      -0.498   1.330   0.000  0.00  0.00    +0.025 A 
ENDROOT
BRANCH   8   6
ATOM      6  N   UNL     1      -3.068   0.947   0.000  0.00  0.00    -0.309 N 
ATOM      7  H   UNL     1      -3.213   1.920   0.000  0.00  0.00    +0.153 HD
BRANCH   6   5
ATOM      1  C   UNL     1      -6.515  -0.836   0.000  0.00  0.00    +0.182 C 
ATOM      2  O   UNL     1      -8.014  -0.901   0.000  0.00  0.00    -0.291 OA
ATOM      3  C   UNL     1      -5.582  -2.011   0.000  0.00  0.00    +0.155 C 
ATOM      4  S   UNL     1      -4.177  -1.486   0.000  0.00  0.00    -0.101 S 
ATOM      5  C   UNL     1      -4.242   0.013   0.000  0.00  0.00    +0.083 C 
ATOM     27  C   UNL     1      -5.687   0.414   0.000  0.00  0.00    +0.130 C 
BRANCH  27  28
ATOM     28  C   UNL     1      -6.212   1.819   0.000  0.00  0.00    +0.345 C 
ATOM     32  O   UNL     1      -7.691   2.067   0.000  0.00  0.00    -0.245 OA
BRANCH  28  29
ATOM     29  O   UNL     1      -5.258   2.977   0.000  0.00  0.00    -0.461 OA
BRANCH  29  30
ATOM     30  C   UNL     1      -3.778   2.729   0.000  0.00  0.00    +0.229 C 
ATOM     31  C   UNL     1      -2.824   3.886   0.000  0.00  0.00    +0.048 C 
ENDBRANCH  29  30
ENDBRANCH  28  29
ENDBRANCH  27  28
ENDBRANCH   6   5
ENDBRANCH   8   6
BRANCH  11  12
ATOM     12  N   UNL     1       2.514  -1.254   0.000  0.00  0.00    -0.309 N 
ATOM     13  H   UNL     1       2.744  -2.211   0.000  0.00  0.00    +0.153 HD
BRANCH  12  14
ATOM     14  C   UNL     1       3.509  -0.131   0.000  0.00  0.00    +0.083 C 
ATOM     15  C   UNL     1       5.002  -0.275   0.000  0.00  0.00    +0.130 C 
ATOM     21  C   UNL     1       5.600   1.101   0.000  0.00  0.00    +0.182 C 
ATOM     22  O   UNL     1       7.065   1.425   0.000  0.00  0.00    -0.291 OA
ATOM     23  C   UNL     1       4.477   2.095   0.000  0.00  0.00    +0.155 C 
ATOM     24  S   UNL     1       3.184   1.334   0.000  0.00  0.00    -0.101 S 
BRANCH  15  16
ATOM     16  C   UNL     1       5.763  -1.567   0.000  0.00  0.00    +0.345 C 
ATOM     20  O   UNL     1       5.024  -2.873   0.000  0.00  0.00    -0.245 OA
BRANCH  16  17
ATOM     17  O   UNL     1       7.263  -1.554   0.000  0.00  0.00    -0.461 OA
BRANCH  17  18
ATOM     18  C   UNL     1       8.024  -2.847   0.000  0.00  0.00    +0.229 C 
ATOM     19  C   UNL     1       7.285  -4.152   0.000  0.00  0.00    +0.048 C 
ENDBRANCH  17  18
ENDBRANCH  16  17
ENDBRANCH  15  16
ENDBRANCH  12  14
ENDBRANCH  11  12
TORSDOF 10