REMARK  Name = 625873
REMARK  19 active torsions:
REMARK  status: ('A' for Active; 'I' for Inactive)
REMARK    1  A    between atoms: C_1  and  C_14
REMARK    2  A    between atoms: C_3  and  C_7
REMARK    3  A    between atoms: N_5  and  C_23
REMARK    4  A    between atoms: C_14  and  C_15
REMARK    5  A    between atoms: C_16  and  O_21
REMARK    6  A    between atoms: O_21  and  C_22
REMARK    7  A    between atoms: C_25  and  C_38
REMARK    8  A    between atoms: C_26  and  O_34
REMARK    9  A    between atoms: C_27  and  O_33
REMARK   10  A    between atoms: C_28  and  O_29
REMARK   11  A    between atoms: O_29  and  C_30
REMARK   12  A    between atoms: C_30  and  C_32
REMARK   13  A    between atoms: O_33  and  C_43
REMARK   14  A    between atoms: O_34  and  C_35
REMARK   15  A    between atoms: C_35  and  C_37
REMARK   16  A    between atoms: C_38  and  O_39
REMARK   17  A    between atoms: O_39  and  C_40
REMARK   18  A    between atoms: C_40  and  C_42
REMARK   19  A    between atoms: C_43  and  C_45
REMARK                            x       y       z     vdW  Elec       q    Type
REMARK                         _______ _______ _______ _____ _____    ______ ____
ROOT
ATOM     14  C   UNL     1      -0.275  10.025   0.000  0.00  0.00    +0.283 C 
ATOM     15  C   UNL     1       1.025   9.274   0.000  0.00  0.00    +0.271 C 
ATOM     20  C   UNL     1       1.025   7.774   0.000  0.00  0.00    +0.264 C 
ATOM     25  C   UNL     1      -0.275   7.024   0.000  0.00  0.00    +0.253 C 
ATOM     30  C   UNL     1      -1.574   7.774   0.000  0.00  0.00    +0.203 C 
ATOM     36  O   UNL     1      -1.574   9.274   0.000  0.00  0.00    -0.341 OA
ENDROOT
BRANCH  14  13
ATOM      1  C   UNL     1      -1.574  14.749   0.000  0.00  0.00    +0.080 A 
ATOM     11  C   UNL     1      -1.574  13.249   0.000  0.00  0.00    +0.129 A 
ATOM     12  S   UNL     1      -2.873  12.499   0.000  0.00  0.00    -0.029 S 
ATOM     13  N   UNL     1      -0.275  12.499   0.000  0.00  0.00    -0.221 N 
ATOM     37  N   UNL     1       1.024  13.249   0.000  0.00  0.00    -0.148 NA
ATOM     38  C   UNL     1       1.024  14.749   0.000  0.00  0.00    +0.180 A 
ATOM     45  N   UNL     1      -0.275  15.499   0.000  0.00  0.00    -0.228 NA
BRANCH  38  39
ATOM     39  C   UNL     1       2.324  15.499   0.000  0.00  0.00    +0.021 A 
ATOM     40  C   UNL     1       2.324  17.000   0.000  0.00  0.00    +0.011 A 
ATOM     41  C   UNL     1       3.623  17.750   0.000  0.00  0.00    +0.001 A 
ATOM     42  C   UNL     1       4.922  17.000   0.000  0.00  0.00    +0.000 A 
ATOM     43  C   UNL     1       4.922  15.499   0.000  0.00  0.00    +0.001 A 
ATOM     44  C   UNL     1       3.623  14.749   0.000  0.00  0.00    +0.011 A 
ENDBRANCH  38  39
BRANCH   1   2
ATOM      2  C   UNL     1      -2.873  15.499   0.000  0.00  0.00    +0.097 C 
BRANCH   2   3
ATOM      3  C   UNL     1      -2.873  17.000   0.000  0.00  0.00    +0.000 A 
ATOM      4  C   UNL     1      -1.574  17.750   0.000  0.00  0.00    +0.007 A 
ATOM      5  C   UNL     1      -1.574  19.250   0.000  0.00  0.00    +0.001 A 
ATOM      6  C   UNL     1      -2.873  20.000   0.000  0.00  0.00    +0.004 A 
ATOM      7  C   UNL     1      -4.172  19.250   0.000  0.00  0.00    +0.046 A 
ATOM      8  C   UNL     1      -4.172  17.750   0.000  0.00  0.00    +0.124 A 
BRANCH   8   9
ATOM      9  O   UNL     1      -5.471  17.000   0.000  0.00  0.00    -0.495 OA
ATOM     10  C   UNL     1      -5.471  15.499   0.000  0.00  0.00    +0.277 C 
ENDBRANCH   8   9
ENDBRANCH   2   3
ENDBRANCH   1   2
ENDBRANCH  14  13
BRANCH  15  16
ATOM     16  O   UNL     1       2.324  10.025   0.000  0.00  0.00    -0.453 OA
BRANCH  16  17
ATOM     17  C   UNL     1       3.623   9.274   0.000  0.00  0.00    +0.304 C 
ATOM     18  C   UNL     1       3.623   7.774   0.000  0.00  0.00    +0.136 C 
ATOM     19  O   UNL     1       4.922  10.025   0.000  0.00  0.00    -0.251 OA
ENDBRANCH  16  17
ENDBRANCH  15  16
BRANCH  20  21
ATOM     21  O   UNL     1      -2.512   9.816   0.000  0.00  0.00    -0.454 OA
BRANCH  21  22
ATOM     22  C   UNL     1      -2.512  11.316   0.000  0.00  0.00    +0.304 C 
ATOM     23  C   UNL     1      -1.213  12.066   0.000  0.00  0.00    +0.136 C 
ATOM     24  O   UNL     1      -3.811  12.066   0.000  0.00  0.00    -0.251 OA
ENDBRANCH  21  22
ENDBRANCH  20  21
BRANCH  25  26
ATOM     26  O   UNL     1      -0.275   5.524   0.000  0.00  0.00    -0.455 OA
BRANCH  26  27
ATOM     27  C   UNL     1      -1.574   4.774   0.000  0.00  0.00    +0.304 C 
ATOM     28  C   UNL     1      -2.873   5.524   0.000  0.00  0.00    +0.136 C 
ATOM     29  O   UNL     1      -1.574   3.275   0.000  0.00  0.00    -0.251 OA
ENDBRANCH  26  27
ENDBRANCH  25  26
BRANCH  30  31
ATOM     31  C   UNL     1      -2.873   7.024   0.000  0.00  0.00    +0.267 C 
BRANCH  31  32
ATOM     32  O   UNL     1      -4.172   7.774   0.000  0.00  0.00    -0.462 OA
BRANCH  32  33
ATOM     33  C   UNL     1      -5.471   7.024   0.000  0.00  0.00    +0.304 C 
ATOM     34  C   UNL     1      -5.471   5.524   0.000  0.00  0.00    +0.136 C 
ATOM     35  O   UNL     1      -6.770   7.774   0.000  0.00  0.00    -0.251 OA
ENDBRANCH  32  33
ENDBRANCH  31  32
ENDBRANCH  30  31
TORSDOF 14