REMARK  Name = 625590
REMARK  5 active torsions:
REMARK  status: ('A' for Active; 'I' for Inactive)
REMARK    1  A    between atoms: C_3  and  C_24
REMARK    2  A    between atoms: C_6  and  C_10
REMARK    3  A    between atoms: C_10  and  C_12
REMARK    4  A    between atoms: C_16  and  O_19
REMARK    5  A    between atoms: O_19  and  C_20
REMARK                            x       y       z     vdW  Elec       q    Type
REMARK                         _______ _______ _______ _____ _____    ______ ____
ROOT
ATOM      3  C   UNL     1       3.522   7.399   0.000  0.00  0.00    +0.070 C 
ATOM     16  N   UNL     1       3.522   8.899   0.000  0.00  0.00    -0.298 NA
ATOM     17  H   UNL     1       4.375   9.392   0.000  0.00  0.00    +0.187 HD
ENDROOT
BRANCH   3   2
ATOM      1  C   UNL     1       0.924   7.399   0.000  0.00  0.00    +0.010 A 
ATOM      2  C   UNL     1       2.223   6.649   0.000  0.00  0.00    +0.004 A 
ATOM     18  C   UNL     1       2.223   5.149   0.000  0.00  0.00    -0.035 A 
ATOM     19  C   UNL     1       3.338   4.146   0.000  0.00  0.00    +0.036 C 
ATOM     20  C   UNL     1       2.728   2.776   0.000  0.00  0.00    +0.009 C 
ATOM     21  C   UNL     1       1.236   2.932   0.000  0.00  0.00    +0.036 C 
ATOM     22  C   UNL     1       0.924   4.399   0.000  0.00  0.00    -0.041 A 
ATOM     23  C   UNL     1      -0.375   5.149   0.000  0.00  0.00    -0.047 A 
ATOM     24  C   UNL     1      -1.674   4.399   0.000  0.00  0.00    +0.044 C 
ATOM     25  C   UNL     1      -0.375   6.649   0.000  0.00  0.00    +0.004 A 
ENDBRANCH   3   2
BRANCH   3   4
ATOM      4  C   UNL     1       4.821   6.649   0.000  0.00  0.00    +0.008 A 
ATOM      5  C   UNL     1       4.821   5.149   0.000  0.00  0.00    +0.010 A 
ATOM      6  C   UNL     1       6.120   4.399   0.000  0.00  0.00    +0.001 A 
ATOM      7  C   UNL     1       7.419   5.149   0.000  0.00  0.00    +0.008 A 
ATOM      8  C   UNL     1       7.419   6.649   0.000  0.00  0.00    -0.017 A 
ATOM      9  C   UNL     1       8.718   7.399   0.000  0.00  0.00    +0.012 A 
ATOM     10  C   UNL     1       8.718   8.899   0.000  0.00  0.00    +0.046 A 
ATOM     11  C   UNL     1       7.419   9.649   0.000  0.00  0.00    +0.121 A 
ATOM     14  C   UNL     1       6.120   8.899   0.000  0.00  0.00    +0.054 A 
ATOM     15  C   UNL     1       6.120   7.399   0.000  0.00  0.00    -0.005 A 
BRANCH  11  12
ATOM     12  O   UNL     1       7.419  11.150   0.000  0.00  0.00    -0.495 OA
ATOM     13  C   UNL     1       8.718  11.900   0.000  0.00  0.00    +0.277 C 
ENDBRANCH  11  12
ENDBRANCH   3   4
TORSDOF 3