REMARK  Name = 617570
REMARK  6 active torsions:
REMARK  status: ('A' for Active; 'I' for Inactive)
REMARK    1  A    between atoms: C_7  and  C_8
REMARK    2  A    between atoms: C_10  and  C_12
REMARK    3  A    between atoms: C_15  and  C_20
REMARK    4  A    between atoms: C_18  and  C_26
REMARK    5  A    between atoms: C_21  and  O_33
REMARK    6  A    between atoms: C_27  and  O_34
REMARK                            x       y       z     vdW  Elec       q    Type
REMARK                         _______ _______ _______ _____ _____    ______ ____
ROOT
ATOM      1 CL   UNL     1      -9.646   6.385   0.000  0.00  0.00    +0.000 Cl
ENDROOT
TORSDOF 0