REMARK  Name = 623637
REMARK  7 active torsions:
REMARK  status: ('A' for Active; 'I' for Inactive)
REMARK    1  A    between atoms: C_3  and  C_24
REMARK    2  A    between atoms: C_6  and  C_7
REMARK    3  A    between atoms: C_7  and  O_13
REMARK    4  A    between atoms: O_13  and  C_14
REMARK    5  A    between atoms: C_15  and  C_16
REMARK    6  A    between atoms: C_16  and  O_18
REMARK    7  A    between atoms: O_18  and  C_19
REMARK                            x       y       z     vdW  Elec       q    Type
REMARK                         _______ _______ _______ _____ _____    ______ ____
ROOT
ATOM      1  C   UNL     1      -8.069 -10.025   0.000  0.00  0.00    +0.047 A 
ATOM      2  C   UNL     1      -6.770  -9.274   0.000  0.00  0.00    +0.139 A 
ATOM      3  O   UNL     1      -5.471 -10.025   0.000  0.00  0.00    -0.422 OA
ATOM      4  C   UNL     1      -4.172  -9.274   0.000  0.00  0.00    +0.338 A 
ATOM      5  O   UNL     1      -2.873 -10.025   0.000  0.00  0.00    -0.245 OA
ATOM      6  C   UNL     1      -4.172  -7.774   0.000  0.00  0.00    +0.099 A 
ATOM      7  C   UNL     1      -5.471  -7.024   0.000  0.00  0.00    +0.007 A 
ATOM     20  C   UNL     1      -6.770  -7.774   0.000  0.00  0.00    +0.024 A 
ATOM     21  C   UNL     1      -8.069  -7.024   0.000  0.00  0.00    +0.015 A 
ATOM     22  C   UNL     1      -9.368  -7.775   0.000  0.00  0.00    -0.050 A 
ATOM     23  C   UNL     1     -10.667  -7.025   0.000  0.00  0.00    +0.044 C 
ATOM     24  C   UNL     1      -9.368  -9.275   0.000  0.00  0.00    +0.007 A 
ENDROOT
BRANCH   7   8
ATOM      8  C   UNL     1      -5.471  -5.524   0.000  0.00  0.00    +0.265 C 
BRANCH   8   9
ATOM      9  O   UNL     1      -4.172  -4.774   0.000  0.00  0.00    -0.487 OA
BRANCH   9  10
ATOM     10  C   UNL     1      -2.873  -5.524   0.000  0.00  0.00    +0.135 A 
ATOM     11  C   UNL     1      -2.873  -7.024   0.000  0.00  0.00    +0.046 A 
ATOM     12  C   UNL     1      -1.573  -7.774   0.000  0.00  0.00    +0.004 A 
ATOM     13  C   UNL     1      -0.275  -7.024   0.000  0.00  0.00    +0.001 A 
ATOM     14  C   UNL     1      -0.275  -5.524   0.000  0.00  0.00    +0.018 A 
ATOM     15  C   UNL     1      -1.573  -4.774   0.000  0.00  0.00    +0.100 A 
BRANCH  15  16
ATOM     16  C   UNL     1      -1.573  -3.275   0.000  0.00  0.00    +0.342 C 
ATOM     19  O   UNL     1      -2.873  -2.525   0.000  0.00  0.00    -0.245 OA
BRANCH  16  17
ATOM     17  O   UNL     1      -0.275  -2.525   0.000  0.00  0.00    -0.464 OA
ATOM     18  C   UNL     1      -0.275  -1.025   0.000  0.00  0.00    +0.280 C 
ENDBRANCH  16  17
ENDBRANCH  15  16
ENDBRANCH   9  10
ENDBRANCH   8   9
ENDBRANCH   7   8
TORSDOF 5