REMARK  Name = 619165
REMARK  8 active torsions:
REMARK  status: ('A' for Active; 'I' for Inactive)
REMARK    1  A    between atoms: C_10  and  C_14
REMARK    2  A    between atoms: C_14  and  C_15
REMARK    3  A    between atoms: C_15  and  C_16
REMARK    4  A    between atoms: C_16  and  SI_17
REMARK    5  A    between atoms: SI_17  and  C_18
REMARK    6  A    between atoms: SI_17  and  C_19
REMARK    7  A    between atoms: SI_17  and  C_20
REMARK    8  A    between atoms: C_21  and  C_22
REMARK                            x       y       z     vdW  Elec       q    Type
REMARK                         _______ _______ _______ _____ _____    ______ ____
ROOT
ATOM      1  C   UNL     1       3.669  -0.009   0.000  0.00  0.00    +0.000 A 
ATOM      2  C   UNL     1       4.279  -1.379   0.000  0.00  0.00    +0.000 A 
ATOM      3  C   UNL     1       5.705  -1.842   0.000  0.00  0.00    +0.000 A 
ATOM      4  C   UNL     1       7.005  -1.092   0.000  0.00  0.00    +0.000 C 
ATOM      5  C   UNL     1       8.303  -1.842   0.000  0.00  0.00    +0.000 C 
ATOM      6  N   UNL     1       8.303  -3.342   0.000  0.00  0.00    +0.000 NA
ATOM      7  H   UNL     1       9.187  -3.852   0.000  0.00  0.00    +0.000 HD
ATOM      8  C   UNL     1       7.005  -4.092   0.000  0.00  0.00    +0.000 C 
ATOM     18  C   UNL     1       5.705  -3.342   0.000  0.00  0.00    +0.000 A 
ATOM     19  N   UNL     1       4.279  -3.806   0.000  0.00  0.00    +0.000 N 
ATOM     20  H   UNL     1       3.975  -4.742   0.000  0.00  0.00    +0.000 HD
ATOM     21  C   UNL     1       3.397  -2.592   0.000  0.00  0.00    +0.000 A 
ATOM     22  C   UNL     1       1.905  -2.436   0.000  0.00  0.00    +0.000 A 
ATOM     23  C   UNL     1       1.295  -1.065   0.000  0.00  0.00    +0.000 A 
ATOM     24  C   UNL     1       2.177   0.148   0.000  0.00  0.00    +0.000 A 
ENDROOT
BRANCH   8   9
ATOM      9  C   UNL     1       7.005  -5.592   0.000  0.00  0.00    +0.000 C 
BRANCH   9  10
ATOM     10  C   UNL     1       8.303  -6.342   0.000  0.00  0.00    +0.000 C 
BRANCH  10  11
ATOM     11  C   UNL     1       8.303  -7.842   0.000  0.00  0.00    +0.000 C 
ATOM     12  C   UNL     1       9.603  -8.592   0.000  0.00  0.00    +0.000 C 
ATOM     13  C   UNL     1      10.902  -7.842   0.000  0.00  0.00    +0.000 C 
BRANCH  11  14
ATOM     14 SI   UNL     1       7.005  -8.592   0.000  0.00  0.00    +0.000 Si
ATOM     15  C   UNL     1       7.755  -9.891   0.000  0.00  0.00    +0.000 C 
ATOM     16  C   UNL     1       5.705  -9.342   0.000  0.00  0.00    +0.000 C 
ATOM     17  C   UNL     1       6.255  -7.293   0.000  0.00  0.00    +0.000 C 
ENDBRANCH  11  14
ENDBRANCH  10  11
ENDBRANCH   9  10
ENDBRANCH   8   9
TORSDOF 4