REMARK  Name = 620280
REMARK  12 active torsions:
REMARK  status: ('A' for Active; 'I' for Inactive)
REMARK    1  A    between atoms: C_1  and  C_16
REMARK    2  A    between atoms: C_4  and  N_7
REMARK    3  A    between atoms: N_7  and  C_8
REMARK    4  A    between atoms: N_7  and  C_9
REMARK    5  A    between atoms: C_8  and  C_12
REMARK    6  A    between atoms: C_9  and  C_10
REMARK    7  A    between atoms: C_10  and  C_11
REMARK    8  A    between atoms: C_12  and  C_13
REMARK    9  A    between atoms: N_17  and  C_18
REMARK   10  A    between atoms: C_19  and  C_23
REMARK   11  A    between atoms: N_20  and  C_24
REMARK   12  A    between atoms: N_21  and  C_25
REMARK                            x       y       z     vdW  Elec       q    Type
REMARK                         _______ _______ _______ _____ _____    ______ ____
ROOT
ATOM      2  C   UNL     1      -2.597   2.626   0.000  0.00  0.00    +0.119 C 
ATOM      3  N   UNL     1      -1.524   3.674   0.000  0.00  0.00    -0.248 NA
ENDROOT
BRANCH   3   4
ATOM      4  C   UNL     1      -0.031   3.525   0.000  0.00  0.00    +0.150 A 
ATOM      5  C   UNL     1       0.726   2.230   0.000  0.00  0.00    +0.298 A 
ATOM      6  O   UNL     1       0.124   0.857   0.000  0.00  0.00    -0.264 OA
ATOM      7  N   UNL     1       2.192   2.550   0.000  0.00  0.00    -0.215 N 
ATOM     14  N   UNL     1       2.340   4.043   0.000  0.00  0.00    -0.282 N 
ATOM     15  C   UNL     1       3.635   4.800   0.000  0.00  0.00    +0.171 C 
ATOM     16  C   UNL     1       0.967   4.646   0.000  0.00  0.00    +0.064 A 
ATOM     17  C   UNL     1       0.646   6.111   0.000  0.00  0.00    +0.067 C 
BRANCH   7   8
ATOM      8  C   UNL     1       3.312   1.553   0.000  0.00  0.00    +0.067 A 
ATOM      9  C   UNL     1       3.009   0.084   0.000  0.00  0.00    +0.028 A 
ATOM     10  C   UNL     1       4.129  -0.913   0.000  0.00  0.00    +0.002 A 
ATOM     11  C   UNL     1       5.553  -0.442   0.000  0.00  0.00    +0.000 A 
ATOM     12  C   UNL     1       5.856   1.027   0.000  0.00  0.00    +0.002 A 
ATOM     13  C   UNL     1       4.736   2.025   0.000  0.00  0.00    +0.028 A 
ENDBRANCH   7   8
ENDBRANCH   3   4
BRANCH   2   1
ATOM      1  C   UNL     1      -2.484   1.130   0.000  0.00  0.00    -0.007 A 
ATOM     18  C   UNL     1      -1.132   0.480   0.000  0.00  0.00    +0.011 A 
ATOM     19  C   UNL     1      -1.019  -1.016   0.000  0.00  0.00    +0.024 A 
ATOM     20  C   UNL     1      -2.258  -1.862   0.000  0.00  0.00    +0.030 A 
ATOM     30  C   UNL     1      -3.610  -1.212   0.000  0.00  0.00    +0.024 A 
ATOM     31  C   UNL     1      -3.723   0.284   0.000  0.00  0.00    +0.011 A 
BRANCH  20  21
ATOM     21  N   UNL     1      -2.145  -3.357   0.000  0.00  0.00    -0.328 N 
BRANCH  21  22
ATOM     22  C   UNL     1      -0.793  -4.007   0.000  0.00  0.00    +0.120 C 
BRANCH  22  23
ATOM     23  C   UNL     1       0.446  -3.162   0.000  0.00  0.00    +0.137 C 
BRANCH  23  24
ATOM     24  C   UNL     1       1.798  -3.812   0.000  0.00  0.00    +0.064 C 
ATOM     25  N   UNL     1       3.150  -4.462   0.000  0.00  0.00    -0.197 NA
ENDBRANCH  23  24
ENDBRANCH  22  23
ENDBRANCH  21  22
BRANCH  21  26
ATOM     26  C   UNL     1      -3.384  -4.203   0.000  0.00  0.00    +0.120 C 
BRANCH  26  27
ATOM     27  C   UNL     1      -4.735  -3.553   0.000  0.00  0.00    +0.137 C 
BRANCH  27  28
ATOM     28  C   UNL     1      -5.974  -4.399   0.000  0.00  0.00    +0.064 C 
ATOM     29  N   UNL     1      -7.213  -5.245   0.000  0.00  0.00    -0.197 NA
ENDBRANCH  27  28
ENDBRANCH  26  27
ENDBRANCH  21  26
ENDBRANCH  20  21
ENDBRANCH   2   1
TORSDOF 10