REMARK  Name = 625355
REMARK  4 active torsions:
REMARK  status: ('A' for Active; 'I' for Inactive)
REMARK    1  A    between atoms: C_2  and  C_6
REMARK    2  A    between atoms: C_3  and  O_8
REMARK    3  A    between atoms: C_5  and  N_10
REMARK    4  A    between atoms: C_6  and  O_7
REMARK                            x       y       z     vdW  Elec       q    Type
REMARK                         _______ _______ _______ _____ _____    ______ ____
ROOT
ATOM      1  O   UNL     1      -1.270  -0.308   0.000  0.00  0.00    -0.345 OA
ATOM      2  C   UNL     1       0.216  -0.104   0.000  0.00  0.00    +0.260 C 
ATOM     10  C   UNL     1       0.869  -1.454   0.000  0.00  0.00    +0.246 C 
ATOM     11  F   UNL     1      -0.607  -1.189   0.000  0.00  0.00    -0.238 F 
ATOM     12  C   UNL     1      -0.213  -2.493   0.000  0.00  0.00    +0.184 C 
ATOM     15  C   UNL     1      -1.535  -1.785   0.000  0.00  0.00    +0.178 C 
ENDROOT
BRANCH   2   3
ATOM      3  N   UNL     1       0.924   1.218   0.000  0.00  0.00    -0.270 N 
ATOM      4  C   UNL     1       2.424   1.266   0.000  0.00  0.00    +0.095 A 
ATOM      5  C   UNL     1       3.132   2.588   0.000  0.00  0.00    +0.038 A 
ATOM      6  C   UNL     1       2.341   3.862   0.000  0.00  0.00    +0.118 A 
ATOM      7  N   UNL     1       0.842   3.815   0.000  0.00  0.00    -0.201 NA
ATOM      8  C   UNL     1       0.134   2.493   0.000  0.00  0.00    +0.350 A 
ATOM      9  O   UNL     1      -1.366   2.445   0.000  0.00  0.00    -0.244 OA
ENDBRANCH   2   3
BRANCH  12  13
ATOM     13  O   UNL     1      -0.009  -3.979   0.000  0.00  0.00    -0.386 OA
ATOM     14  H   UNL     1      -0.775  -4.574   0.000  0.00  0.00    +0.210 HD
ENDBRANCH  12  13
BRANCH  15  16
ATOM     16  C   UNL     1      -2.886  -2.438   0.000  0.00  0.00    +0.190 C 
BRANCH  16  17
ATOM     17  O   UNL     1      -2.995  -3.934   0.000  0.00  0.00    -0.392 OA
ATOM     18  H   UNL     1      -3.868  -4.356   0.000  0.00  0.00    +0.210 HD
ENDBRANCH  16  17
ENDBRANCH  15  16
TORSDOF 4