REMARK  Name = 618261
REMARK  9 active torsions:
REMARK  status: ('A' for Active; 'I' for Inactive)
REMARK    1  A    between atoms: C_2  and  N_3
REMARK    2  A    between atoms: C_6  and  C_16
REMARK    3  A    between atoms: C_11  and  O_14
REMARK    4  A    between atoms: O_14  and  C_15
REMARK    5  A    between atoms: C_18  and  C_23
REMARK    6  A    between atoms: C_20  and  C_21
REMARK    7  A    between atoms: C_20  and  C_22
REMARK    8  A    between atoms: C_27  and  C_28
REMARK    9  A    between atoms: C_27  and  C_29
REMARK                            x       y       z     vdW  Elec       q    Type
REMARK                         _______ _______ _______ _____ _____    ______ ____
ROOT
ATOM      1  C   UNL     1       3.148  11.147   0.000  0.00  0.00    +0.095 C 
ATOM      2  C   UNL     1       4.447  10.397   0.000  0.00  0.00    +0.026 A 
ATOM      3  C   UNL     1       5.747  11.147   0.000  0.00  0.00    +0.057 A 
ATOM      4  C   UNL     1       7.046  10.397   0.000  0.00  0.00    +0.121 A 
ATOM      7  C   UNL     1       7.046   8.897   0.000  0.00  0.00    +0.049 A 
ATOM      8  C   UNL     1       5.747   8.147   0.000  0.00  0.00    +0.050 A 
ATOM      9  C   UNL     1       4.447   8.897   0.000  0.00  0.00    +0.129 A 
ATOM     10  O   UNL     1       3.148   8.147   0.000  0.00  0.00    -0.475 OA
ATOM     11  C   UNL     1       1.849   8.897   0.000  0.00  0.00    +0.305 C 
ATOM     26  C   UNL     1       1.849  10.397   0.000  0.00  0.00    +0.293 C 
ENDROOT
BRANCH  11  12
ATOM     12  C   UNL     1       0.550   8.147   0.000  0.00  0.00    +0.204 C 
ATOM     13  C   UNL     1       0.394   6.655   0.000  0.00  0.00    +0.185 C 
ATOM     21  O   UNL     1      -1.074   6.343   0.000  0.00  0.00    -0.341 OA
ATOM     22  C   UNL     1      -1.824   7.642   0.000  0.00  0.00    +0.166 C 
ATOM     23  C   UNL     1      -2.827   8.757   0.000  0.00  0.00    +0.074 C 
ATOM     24  C   UNL     1      -3.037   6.761   0.000  0.00  0.00    +0.074 C 
ATOM     25  O   UNL     1      -0.820   8.757   0.000  0.00  0.00    -0.339 OA
BRANCH  13  14
ATOM     14  C   UNL     1       1.508   5.651   0.000  0.00  0.00    +0.179 C 
ATOM     15  C   UNL     1       1.351   4.160   0.000  0.00  0.00    +0.197 C 
ATOM     16  O   UNL     1       2.722   3.550   0.000  0.00  0.00    -0.347 OA
ATOM     17  C   UNL     1       3.725   4.664   0.000  0.00  0.00    +0.165 C 
ATOM     18  C   UNL     1       4.840   3.660   0.000  0.00  0.00    +0.074 C 
ATOM     19  C   UNL     1       4.729   5.779   0.000  0.00  0.00    +0.074 C 
ATOM     20  O   UNL     1       2.975   5.963   0.000  0.00  0.00    -0.341 OA
ENDBRANCH  13  14
ENDBRANCH  11  12
BRANCH  26  27
ATOM     27  N   UNL     1       0.550  11.147   0.000  0.00  0.00    +0.079 N 
ATOM     28  O   UNL     1      -0.749  10.397   0.000  0.00  0.00    +0.041 OA
ATOM     29  O   UNL     1       0.550  12.647   0.000  0.00  0.00    -0.576 OA
ENDBRANCH  26  27
BRANCH   4   5
ATOM      5  O   UNL     1       8.345  11.147   0.000  0.00  0.00    -0.495 OA
ATOM      6  C   UNL     1       9.644  10.397   0.000  0.00  0.00    +0.277 C 
ENDBRANCH   4   5
TORSDOF 4