REMARK  Name = 622732
REMARK  3 active torsions:
REMARK  status: ('A' for Active; 'I' for Inactive)
REMARK    1  A    between atoms: C_6  and  N_8
REMARK    2  A    between atoms: N_8  and  C_9
REMARK    3  A    between atoms: N_19  and  C_20
REMARK                            x       y       z     vdW  Elec       q    Type
REMARK                         _______ _______ _______ _____ _____    ______ ____
ROOT
ATOM      6  C   UNL     1       5.109   6.816   0.000  0.00  0.00    +0.041 A 
ATOM      7  C   UNL     1       3.810   6.066   0.000  0.00  0.00    +0.022 A 
ATOM      8  C   UNL     1       2.511   6.816   0.000  0.00  0.00    +0.025 A 
ATOM      9  C   UNL     1       1.212   6.066   0.000  0.00  0.00    +0.039 A 
ATOM     10  C   UNL     1       1.212   4.566   0.000  0.00  0.00    +0.159 A 
ATOM     11  N   UNL     1       2.511   3.816   0.000  0.00  0.00    -0.228 NA
ATOM     12  N   UNL     1      -0.215   4.102   0.000  0.00  0.00    -0.250 N 
ATOM     13  C   UNL     1      -0.679   2.675   0.000  0.00  0.00    +0.174 C 
ATOM     14  N   UNL     1      -1.097   5.316   0.000  0.00  0.00    -0.177 NA
ATOM     15  C   UNL     1      -0.215   6.529   0.000  0.00  0.00    +0.144 A 
ATOM     16  C   UNL     1       3.810   4.566   0.000  0.00  0.00    +0.075 A 
ATOM     17  C   UNL     1       5.109   3.816   0.000  0.00  0.00    +0.028 A 
ATOM     18  C   UNL     1       6.408   4.566   0.000  0.00  0.00    +0.004 A 
ATOM     19  C   UNL     1       6.408   6.066   0.000  0.00  0.00    +0.024 A 
ENDROOT
BRANCH   6   4
ATOM      4  N   UNL     1       5.109   8.316   0.000  0.00  0.00    -0.314 N 
ATOM      5  H   UNL     1       4.256   8.808   0.000  0.00  0.00    +0.152 HD
BRANCH   4   3
ATOM      1  C   UNL     1       7.707  11.316   0.000  0.00  0.00    +0.022 A 
ATOM      2  C   UNL     1       6.408  10.566   0.000  0.00  0.00    +0.024 A 
ATOM      3  C   UNL     1       6.408   9.066   0.000  0.00  0.00    +0.031 A 
ATOM     20  C   UNL     1       7.707   8.316   0.000  0.00  0.00    +0.024 A 
ATOM     21  C   UNL     1       9.006   9.066   0.000  0.00  0.00    +0.022 A 
ATOM     22  C   UNL     1       9.006  10.566   0.000  0.00  0.00    +0.041 A 
ATOM     23 CL   UNL     1      10.305  11.316   0.000  0.00  0.00    -0.084 Cl
ENDBRANCH   4   3
ENDBRANCH   6   4
TORSDOF 2