REMARK  Name = 620279
REMARK  13 active torsions:
REMARK  status: ('A' for Active; 'I' for Inactive)
REMARK    1  A    between atoms: C_1  and  C_16
REMARK    2  A    between atoms: C_4  and  N_7
REMARK    3  A    between atoms: N_7  and  C_8
REMARK    4  A    between atoms: N_7  and  C_9
REMARK    5  A    between atoms: C_8  and  C_12
REMARK    6  A    between atoms: C_9  and  C_10
REMARK    7  A    between atoms: C_10  and  C_11
REMARK    8  A    between atoms: C_12  and  C_13
REMARK    9  A    between atoms: N_17  and  C_20
REMARK   10  A    between atoms: C_21  and  C_24
REMARK   11  A    between atoms: C_24  and  O_26
REMARK   12  A    between atoms: O_26  and  C_27
REMARK   13  A    between atoms: C_27  and  C_28
REMARK                            x       y       z     vdW  Elec       q    Type
REMARK                         _______ _______ _______ _____ _____    ______ ____
ROOT
ATOM      1  C   UNL     1      -7.419  -6.649   0.000  0.00  0.00    -0.007 A 
ATOM     15  C   UNL     1      -6.120  -7.399   0.000  0.00  0.00    +0.011 A 
ATOM     16  C   UNL     1      -6.120  -8.899   0.000  0.00  0.00    +0.024 A 
ATOM     17  C   UNL     1      -7.419  -9.649   0.000  0.00  0.00    +0.030 A 
ATOM     27  C   UNL     1      -8.718  -8.899   0.000  0.00  0.00    +0.024 A 
ATOM     28  C   UNL     1      -8.718  -7.399   0.000  0.00  0.00    +0.011 A 
ENDROOT
BRANCH   1   2
ATOM      2  C   UNL     1      -7.419  -5.149   0.000  0.00  0.00    +0.119 C 
ATOM      3  N   UNL     1      -6.120  -4.399   0.000  0.00  0.00    -0.255 NA
BRANCH   3   4
ATOM      4  C   UNL     1      -4.821  -5.149   0.000  0.00  0.00    +0.064 A 
ATOM      5  C   UNL     1      -4.821  -6.649   0.000  0.00  0.00    +0.028 A 
ATOM      6  C   UNL     1      -3.522  -7.399   0.000  0.00  0.00    +0.017 A 
ATOM      7  C   UNL     1      -2.223  -6.649   0.000  0.00  0.00    +0.059 A 
ATOM     13  C   UNL     1      -2.223  -5.149   0.000  0.00  0.00    +0.017 A 
ATOM     14  C   UNL     1      -3.522  -4.399   0.000  0.00  0.00    +0.028 A 
BRANCH   7   8
ATOM      8  C   UNL     1      -0.924  -7.399   0.000  0.00  0.00    +0.339 C 
ATOM     12  O   UNL     1      -0.924  -8.899   0.000  0.00  0.00    -0.245 OA
BRANCH   8   9
ATOM      9  O   UNL     1       0.375  -6.649   0.000  0.00  0.00    -0.461 OA
BRANCH   9  10
ATOM     10  C   UNL     1       1.674  -7.399   0.000  0.00  0.00    +0.229 C 
ATOM     11  C   UNL     1       2.973  -6.649   0.000  0.00  0.00    +0.048 C 
ENDBRANCH   9  10
ENDBRANCH   8   9
ENDBRANCH   7   8
ENDBRANCH   3   4
ENDBRANCH   1   2
BRANCH  17  18
ATOM     18  N   UNL     1      -7.419 -11.150   0.000  0.00  0.00    -0.328 N 
BRANCH  18  19
ATOM     19  C   UNL     1      -6.120 -11.900   0.000  0.00  0.00    +0.120 C 
BRANCH  19  20
ATOM     20  C   UNL     1      -4.821 -11.150   0.000  0.00  0.00    +0.137 C 
BRANCH  20  21
ATOM     21  C   UNL     1      -3.522 -11.900   0.000  0.00  0.00    +0.064 C 
ATOM     22  N   UNL     1      -2.223 -12.650   0.000  0.00  0.00    -0.197 NA
ENDBRANCH  20  21
ENDBRANCH  19  20
ENDBRANCH  18  19
BRANCH  18  23
ATOM     23  C   UNL     1      -8.718 -11.900   0.000  0.00  0.00    +0.120 C 
BRANCH  23  24
ATOM     24  C   UNL     1     -10.017 -11.150   0.000  0.00  0.00    +0.137 C 
BRANCH  24  25
ATOM     25  C   UNL     1     -11.316 -11.900   0.000  0.00  0.00    +0.064 C 
ATOM     26  N   UNL     1     -12.615 -12.650   0.000  0.00  0.00    -0.197 NA
ENDBRANCH  24  25
ENDBRANCH  23  24
ENDBRANCH  18  23
ENDBRANCH  17  18
TORSDOF 12