REMARK  Name = 623059
REMARK  6 active torsions:
REMARK  status: ('A' for Active; 'I' for Inactive)
REMARK    1  A    between atoms: C_2  and  O_3
REMARK    2  A    between atoms: O_3  and  C_4
REMARK    3  A    between atoms: C_13  and  C_15
REMARK    4  A    between atoms: C_15  and  C_17
REMARK    5  A    between atoms: C_17  and  C_18
REMARK    6  A    between atoms: C_18  and  C_20
REMARK                            x       y       z     vdW  Elec       q    Type
REMARK                         _______ _______ _______ _____ _____    ______ ____
ROOT
ATOM      1  C   UNL     1     -17.065  -4.804   0.000  0.00  0.00    +0.048 A 
ATOM      2  C   UNL     1     -16.315  -3.505   0.000  0.00  0.00    +0.032 A 
ATOM      3  C   UNL     1     -14.815  -3.505   0.000  0.00  0.00    +0.081 A 
ATOM      4  N   UNL     1     -13.812  -2.390   0.000  0.00  0.00    -0.225 NA
ATOM      5  C   UNL     1     -12.441  -3.000   0.000  0.00  0.00    +0.166 A 
ATOM      6  N   UNL     1     -11.142  -2.250   0.000  0.00  0.00    -0.258 N 
ATOM      7  H   UNL     1     -11.142  -1.266   0.000  0.00  0.00    +0.157 HD
ATOM      8  C   UNL     1      -9.843  -3.000   0.000  0.00  0.00    +0.286 C 
ATOM     21  O   UNL     1      -9.843  -4.500   0.000  0.00  0.00    -0.267 OA
ATOM     22  S   UNL     1     -12.598  -4.492   0.000  0.00  0.00    -0.052 S 
ATOM     23  C   UNL     1     -14.065  -4.804   0.000  0.00  0.00    +0.044 A 
ATOM     24  C   UNL     1     -14.815  -6.103   0.000  0.00  0.00    +0.063 A 
ATOM     25  C   UNL     1     -16.315  -6.103   0.000  0.00  0.00    +0.121 A 
ENDROOT
BRANCH   8   9
ATOM      9  C   UNL     1      -8.544  -2.250   0.000  0.00  0.00    +0.225 C 
ATOM     20  O   UNL     1      -8.544  -0.750   0.000  0.00  0.00    -0.287 OA
BRANCH   9  10
ATOM     10  C   UNL     1      -7.245  -3.000   0.000  0.00  0.00    +0.164 C 
BRANCH  10  11
ATOM     11  C   UNL     1      -5.946  -2.250   0.000  0.00  0.00    +0.171 C 
ATOM     19  O   UNL     1      -5.946  -0.750   0.000  0.00  0.00    -0.292 OA
BRANCH  11  12
ATOM     12  C   UNL     1      -4.647  -3.000   0.000  0.00  0.00    +0.018 A 
ATOM     13  C   UNL     1      -4.647  -4.500   0.000  0.00  0.00    +0.013 A 
ATOM     14  C   UNL     1      -3.348  -5.250   0.000  0.00  0.00    +0.020 A 
ATOM     15  C   UNL     1      -2.049  -4.500   0.000  0.00  0.00    +0.041 A 
ATOM     16 CL   UNL     1      -0.750  -5.250   0.000  0.00  0.00    -0.084 Cl
ATOM     17  C   UNL     1      -2.049  -3.000   0.000  0.00  0.00    +0.020 A 
ATOM     18  C   UNL     1      -3.348  -2.250   0.000  0.00  0.00    +0.013 A 
ENDBRANCH  11  12
ENDBRANCH  10  11
ENDBRANCH   9  10
ENDBRANCH   8   9
BRANCH  25  26
ATOM     26  O   UNL     1     -17.065  -7.402   0.000  0.00  0.00    -0.495 OA
ATOM     27  C   UNL     1     -18.565  -7.402   0.000  0.00  0.00    +0.277 C 
ENDBRANCH  25  26
TORSDOF 5