REMARK  Name = 620261
REMARK  11 active torsions:
REMARK  status: ('A' for Active; 'I' for Inactive)
REMARK    1  A    between atoms: C_4  and  C_7
REMARK    2  A    between atoms: C_7  and  C_8
REMARK    3  A    between atoms: N_10  and  CA_11
REMARK    4  A    between atoms: CA_11  and  C_12
REMARK    5  A    between atoms: CA_11  and  CB_15
REMARK    6  A    between atoms: C_12  and  OXT_14
REMARK    7  A    between atoms: CB_15  and  CG_16
REMARK    8  A    between atoms: CG_16  and  CD_17
REMARK    9  A    between atoms: C_22  and  C_26
REMARK   10  A    between atoms: C_26  and  C_27
REMARK   11  A    between atoms: C_27  and  O_29
REMARK                            x       y       z     vdW  Elec       q    Type
REMARK                         _______ _______ _______ _____ _____    ______ ____
ROOT
ATOM      1  C   UNL     1       3.998   9.000   0.000  0.00  0.00    +0.000 A 
ATOM      2  C   UNL     1       3.998   7.500   0.000  0.00  0.00    +0.000 A 
ATOM      3  C   UNL     1       5.297   6.750   0.000  0.00  0.00    +0.000 A 
ATOM      4  C   UNL     1       6.596   7.500   0.000  0.00  0.00    +0.004 A 
ATOM      5  C   UNL     1       6.596   9.000   0.000  0.00  0.00    -0.037 A 
ATOM     11  C   UNL     1       5.297   9.750   0.000  0.00  0.00    +0.004 A 
ENDROOT
BRANCH   5   6
ATOM      6  C   UNL     1       7.895   9.750   0.000  0.00  0.00    +0.155 C 
BRANCH   6   7
ATOM      7  C   UNL     1       9.194   9.000   0.000  0.00  0.00    +0.309 C 
ATOM     10  O   UNL     1       9.194   7.500   0.000  0.00  0.00    -0.251 OA
BRANCH   7   8
ATOM      8  O   UNL     1      10.493   9.750   0.000  0.00  0.00    -0.480 OA
ATOM      9  H   UNL     1      11.304   9.281   0.000  0.00  0.00    +0.295 HD
ENDBRANCH   7   8
ENDBRANCH   6   7
ENDBRANCH   5   6
TORSDOF 3