REMARK  Name = 622586
REMARK  11 active torsions:
REMARK  status: ('A' for Active; 'I' for Inactive)
REMARK    1  A    between atoms: N_1  and  C_2
REMARK    2  A    between atoms: N_1  and  C_3
REMARK    3  A    between atoms: N_1  and  C_4
REMARK    4  A    between atoms: C_4  and  N_6
REMARK    5  A    between atoms: N_8  and  C_12
REMARK    6  A    between atoms: C_15  and  O_16
REMARK    7  A    between atoms: O_16  and  C_17
REMARK    8  A    between atoms: N_20  and  C_21
REMARK    9  A    between atoms: C_21  and  N_23
REMARK   10  A    between atoms: N_23  and  C_24
REMARK   11  A    between atoms: N_23  and  C_25
REMARK                            x       y       z     vdW  Elec       q    Type
REMARK                         _______ _______ _______ _____ _____    ______ ____
ROOT
ATOM      3  N   UNL     1     -10.144  -1.137   0.000  0.00  0.00    -0.168 NA
ATOM      4  C   UNL     1      -8.652  -0.980   0.000  0.00  0.00    +0.178 A 
ATOM      5  S   UNL     1      -7.902   0.319   0.000  0.00  0.00    -0.013 S 
ATOM      6  S   UNL     1      -6.435   0.007   0.000  0.00  0.00    -0.013 S 
ATOM      7  C   UNL     1      -6.278  -1.484   0.000  0.00  0.00    +0.178 A 
ATOM      8  N   UNL     1      -4.979  -2.235   0.000  0.00  0.00    -0.168 NA
ATOM     14  N   UNL     1      -7.649  -2.095   0.000  0.00  0.00    -0.271 N 
ENDROOT
BRANCH  14  15
ATOM     15  C   UNL     1      -7.961  -3.562   0.000  0.00  0.00    +0.051 A 
ATOM     16  C   UNL     1      -6.846  -4.566   0.000  0.00  0.00    +0.030 A 
ATOM     17  C   UNL     1      -7.158  -6.033   0.000  0.00  0.00    +0.047 A 
ATOM     18  C   UNL     1      -8.584  -6.496   0.000  0.00  0.00    +0.120 A 
ATOM     21  C   UNL     1      -9.699  -5.493   0.000  0.00  0.00    +0.047 A 
ATOM     22  C   UNL     1      -9.387  -4.025   0.000  0.00  0.00    +0.030 A 
BRANCH  18  19
ATOM     19  O   UNL     1      -8.896  -7.963   0.000  0.00  0.00    -0.495 OA
ATOM     20  C   UNL     1     -10.323  -8.427   0.000  0.00  0.00    +0.277 C 
ENDBRANCH  18  19
ENDBRANCH  14  15
BRANCH   3   2
ATOM      2  C   UNL     1     -11.026   0.077   0.000  0.00  0.00    +0.158 C 
ATOM     23  S   UNL     1     -10.416   1.447   0.000  0.00  0.00    -0.017 S 
BRANCH   2   1
ATOM      1  N   UNL     1     -12.518  -0.080   0.000  0.00  0.00    -0.317 N 
ATOM     24  C   UNL     1     -13.128  -1.450   0.000  0.00  0.00    +0.130 C 
ATOM     25  C   UNL     1     -13.399   1.134   0.000  0.00  0.00    +0.130 C 
ENDBRANCH   2   1
ENDBRANCH   3   2
BRANCH   8   9
ATOM      9  C   UNL     1      -3.680  -1.484   0.000  0.00  0.00    +0.158 C 
ATOM     13  S   UNL     1      -3.680   0.016   0.000  0.00  0.00    -0.017 S 
BRANCH   9  10
ATOM     10  N   UNL     1      -2.381  -2.235   0.000  0.00  0.00    -0.317 N 
ATOM     11  C   UNL     1      -1.082  -1.484   0.000  0.00  0.00    +0.130 C 
ATOM     12  C   UNL     1      -2.381  -3.735   0.000  0.00  0.00    +0.130 C 
ENDBRANCH   9  10
ENDBRANCH   8   9
TORSDOF 6