REMARK  Name = 619907
REMARK  0 active torsions:
REMARK  status: ('A' for Active; 'I' for Inactive)
REMARK                            x       y       z     vdW  Elec       q    Type
REMARK                         _______ _______ _______ _____ _____    ______ ____
ROOT
ATOM      1 MN   UNL     1      -4.821  -6.649   0.000  0.00  0.00    +0.000 Mn
ATOM      2  O   UNL     1      -4.821  -5.149   0.000  0.00  0.00    -0.500 OA
ATOM      3  C   UNL     1      -3.522  -4.399   0.000  0.00  0.00    +0.000 C 
ATOM      4  O   UNL     1      -3.522  -2.900   0.000  0.00  0.00    -0.500 OA
ATOM      5  C   UNL     1      -2.223  -5.149   0.000  0.00  0.00    +0.000 A 
ATOM      6  C   UNL     1      -0.924  -4.399   0.000  0.00  0.00    +0.000 A 
ATOM      7  C   UNL     1       0.375  -5.149   0.000  0.00  0.00    +0.000 A 
ATOM      8  I   UNL     1       1.674  -4.399   0.000  0.00  0.00    +0.000 I 
ATOM      9  C   UNL     1       0.375  -6.649   0.000  0.00  0.00    +0.000 A 
ATOM     10  C   UNL     1      -0.924  -7.399   0.000  0.00  0.00    +0.000 A 
ATOM     11  I   UNL     1      -0.924  -8.899   0.000  0.00  0.00    +0.000 I 
ATOM     12  C   UNL     1      -2.223  -6.649   0.000  0.00  0.00    +0.000 A 
ATOM     13  O   UNL     1      -6.120  -5.899   0.000  0.00  0.00    -0.500 OA
ATOM     14  C   UNL     1      -7.419  -6.649   0.000  0.00  0.00    +0.000 C 
ATOM     15  O   UNL     1      -8.718  -5.899   0.000  0.00  0.00    -0.500 OA
ATOM     16  C   UNL     1      -7.419  -8.149   0.000  0.00  0.00    +0.000 A 
ATOM     17  C   UNL     1      -6.120  -8.899   0.000  0.00  0.00    +0.000 A 
ATOM     18  C   UNL     1      -6.120 -10.400   0.000  0.00  0.00    +0.000 A 
ATOM     19  I   UNL     1      -4.821 -11.150   0.000  0.00  0.00    +0.000 I 
ATOM     20  C   UNL     1      -7.419 -11.150   0.000  0.00  0.00    +0.000 A 
ATOM     21  C   UNL     1      -8.718 -10.400   0.000  0.00  0.00    +0.000 A 
ATOM     22  I   UNL     1     -10.017 -11.150   0.000  0.00  0.00    +0.000 I 
ATOM     23  C   UNL     1      -8.718  -8.899   0.000  0.00  0.00    +0.000 A 
ATOM     24  O   UNL     1      -4.821  -8.149   0.000  0.00  0.00    +1.000 OA
ATOM     25  H   UNL     1      -3.522  -8.899   0.000  0.00  0.00    +0.000 HD
ATOM     26  O   UNL     1      -3.522  -7.399   0.000  0.00  0.00    +1.000 OA
ATOM     27  H   UNL     1      -3.522  -8.899   0.000  0.00  0.00    +0.000 HD
ENDROOT
TORSDOF 0