REMARK  Name = 635563
REMARK  4 active torsions:
REMARK  status: ('A' for Active; 'I' for Inactive)
REMARK    1  A    between atoms: C_3  and  O_4
REMARK    2  A    between atoms: C_5  and  N_6
REMARK    3  A    between atoms: C_10  and  C_11
REMARK    4  A    between atoms: C_13  and  S_14
REMARK                            x       y       z     vdW  Elec       q    Type
REMARK                         _______ _______ _______ _____ _____    ______ ____
ROOT
ATOM      1  C   UNL     1       0.924   7.399   0.000  0.00  0.00    +0.015 A 
ATOM      2  C   UNL     1       2.223   6.649   0.000  0.00  0.00    +0.026 A 
ATOM     11  C   UNL     1       2.223   5.149   0.000  0.00  0.00    +0.099 A 
ATOM     12  C   UNL     1       0.924   4.399   0.000  0.00  0.00    +0.315 A 
ATOM     16  C   UNL     1      -0.375   5.149   0.000  0.00  0.00    +0.195 A 
ATOM     19  C   UNL     1      -0.375   6.649   0.000  0.00  0.00    +0.053 A 
ENDROOT
BRANCH   2   3
ATOM      3  C   UNL     1       3.522   7.399   0.000  0.00  0.00    +0.162 A 
ATOM      4  N   UNL     1       3.679   8.891   0.000  0.00  0.00    -0.129 NA
ATOM      5  N   UNL     1       5.146   9.203   0.000  0.00  0.00    -0.123 NA
ATOM      6  C   UNL     1       5.896   7.904   0.000  0.00  0.00    +0.186 A 
ATOM      9  N   UNL     1       4.892   6.789   0.000  0.00  0.00    -0.316 N 
ATOM     10  H   UNL     1       5.097   5.826   0.000  0.00  0.00    +0.169 HD
BRANCH   6   7
ATOM      7  S   UNL     1       7.388   7.747   0.000  0.00  0.00    -0.104 S 
ATOM      8  H   UNL     1       7.941   6.505   0.000  0.00  0.00    +0.110 HD
ENDBRANCH   6   7
ENDBRANCH   2   3
BRANCH  12  13
ATOM     13  N   UNL     1       0.924   2.900   0.000  0.00  0.00    +0.083 N 
ATOM     14  O   UNL     1       2.223   2.150   0.000  0.00  0.00    +0.042 OA
ATOM     15  O   UNL     1      -0.375   2.150   0.000  0.00  0.00    -0.576 OA
ENDBRANCH  12  13
BRANCH  16  17
ATOM     17  O   UNL     1      -1.674   4.399   0.000  0.00  0.00    -0.501 OA
ATOM     18  H   UNL     1      -2.485   4.868   0.000  0.00  0.00    +0.292 HD
ENDBRANCH  16  17
TORSDOF 4