REMARK  Name = 641607
REMARK  9 active torsions:
REMARK  status: ('A' for Active; 'I' for Inactive)
REMARK    1  A    between atoms: C_7  and  C_11
REMARK    2  A    between atoms: C_11  and  C_12
REMARK    3  A    between atoms: C_11  and  C_20
REMARK    4  A    between atoms: C_15  and  O_18
REMARK    5  A    between atoms: O_18  and  C_19
REMARK    6  A    between atoms: C_20  and  C_22
REMARK    7  A    between atoms: N_21  and  O_30
REMARK    8  A    between atoms: C_26  and  O_28
REMARK    9  A    between atoms: O_28  and  C_29
REMARK                            x       y       z     vdW  Elec       q    Type
REMARK                         _______ _______ _______ _____ _____    ______ ____
ROOT
ATOM      4  C   UNL     1       4.278   6.023   0.000  0.00  0.00    +0.090 C 
ENDROOT
BRANCH   4   3
ATOM      1  C   UNL     1       1.145   7.310   0.000  0.00  0.00    +0.008 A 
ATOM      2  C   UNL     1       1.609   5.883   0.000  0.00  0.00    +0.010 A 
ATOM      3  C   UNL     1       2.979   5.273   0.000  0.00  0.00    +0.145 C 
ATOM     25  C   UNL     1       2.822   3.781   0.000  0.00  0.00    +0.321 C 
ATOM     26  O   UNL     1       1.355   3.469   0.000  0.00  0.00    -0.425 OA
ATOM     27  O   UNL     1       3.937   2.777   0.000  0.00  0.00    -0.250 OA
ATOM     28  C   UNL     1       0.605   4.768   0.000  0.00  0.00    +0.136 A 
ATOM     29  C   UNL     1      -0.862   5.080   0.000  0.00  0.00    +0.046 A 
ATOM     30  C   UNL     1      -1.326   6.507   0.000  0.00  0.00    +0.004 A 
ATOM     31  C   UNL     1      -0.322   7.621   0.000  0.00  0.00    +0.001 A 
ENDBRANCH   4   3
BRANCH   4  17
ATOM     17  C   UNL     1       4.278   7.523   0.000  0.00  0.00    -0.037 A 
ATOM     18  C   UNL     1       5.577   8.273   0.000  0.00  0.00    +0.008 A 
ATOM     19  C   UNL     1       5.577   9.773   0.000  0.00  0.00    +0.046 A 
ATOM     20  C   UNL     1       4.278  10.523   0.000  0.00  0.00    +0.120 A 
ATOM     23  C   UNL     1       2.979   9.773   0.000  0.00  0.00    +0.046 A 
ATOM     24  C   UNL     1       2.979   8.273   0.000  0.00  0.00    +0.008 A 
BRANCH  20  21
ATOM     21  O   UNL     1       4.278  12.023   0.000  0.00  0.00    -0.495 OA
ATOM     22  C   UNL     1       5.577  12.773   0.000  0.00  0.00    +0.277 C 
ENDBRANCH  20  21
ENDBRANCH   4  17
BRANCH   4   5
ATOM      5  C   UNL     1       5.577   5.273   0.000  0.00  0.00    +0.095 C 
ATOM     14  N   UNL     1       5.577   3.773   0.000  0.00  0.00    -0.091 NA
BRANCH   5   6
ATOM      6  C   UNL     1       6.876   6.023   0.000  0.00  0.00    +0.000 A 
ATOM      7  C   UNL     1       8.175   5.273   0.000  0.00  0.00    +0.013 A 
ATOM      8  C   UNL     1       9.474   6.023   0.000  0.00  0.00    +0.046 A 
ATOM      9  C   UNL     1       9.474   7.523   0.000  0.00  0.00    +0.120 A 
ATOM     12  C   UNL     1       8.175   8.273   0.000  0.00  0.00    +0.046 A 
ATOM     13  C   UNL     1       6.876   7.523   0.000  0.00  0.00    +0.013 A 
BRANCH   9  10
ATOM     10  O   UNL     1      10.773   8.273   0.000  0.00  0.00    -0.495 OA
ATOM     11  C   UNL     1      12.073   7.523   0.000  0.00  0.00    +0.277 C 
ENDBRANCH   9  10
ENDBRANCH   5   6
BRANCH  14  15
ATOM     15  O   UNL     1       4.278   3.023   0.000  0.00  0.00    -0.409 OA
ATOM     16  H   UNL     1       3.467   3.491   0.000  0.00  0.00    +0.328 HD
ENDBRANCH  14  15
ENDBRANCH   4   5
TORSDOF 7