REMARK  Name = 636817
REMARK  4 active torsions:
REMARK  status: ('A' for Active; 'I' for Inactive)
REMARK    1  A    between atoms: C_9  and  C_13
REMARK    2  A    between atoms: C_11  and  C_12
REMARK    3  A    between atoms: C_16  and  O_17
REMARK    4  A    between atoms: O_17  and  C_20
REMARK                            x       y       z     vdW  Elec       q    Type
REMARK                         _______ _______ _______ _____ _____    ______ ____
ROOT
ATOM      1  S   UNL     1      -9.186   6.470   0.000  0.00  0.00    -0.120 S 
ATOM      2  C   UNL     1      -7.723   6.136   0.000  0.00  0.00    +0.054 C 
ATOM      3  C   UNL     1      -6.788   7.309   0.000  0.00  0.00    +0.020 C 
ATOM      4  C   UNL     1      -7.073   4.785   0.000  0.00  0.00    +0.070 C 
ATOM      5  C   UNL     1      -7.723   3.434   0.000  0.00  0.00    +0.050 C 
ATOM     14  N   UNL     1      -9.186   3.100   0.000  0.00  0.00    -0.250 NA
ATOM     15  C   UNL     1     -10.359   4.035   0.000  0.00  0.00    +0.078 A 
ATOM     16  C   UNL     1     -11.658   3.285   0.000  0.00  0.00    +0.029 A 
ATOM     17  C   UNL     1     -12.957   4.035   0.000  0.00  0.00    +0.002 A 
ATOM     18  C   UNL     1     -12.957   5.535   0.000  0.00  0.00    +0.001 A 
ATOM     19  C   UNL     1     -11.658   6.285   0.000  0.00  0.00    +0.017 A 
ATOM     20  C   UNL     1     -10.359   5.535   0.000  0.00  0.00    +0.033 A 
ENDROOT
BRANCH   5   6
ATOM      6  C   UNL     1      -6.788   2.261   0.000  0.00  0.00    -0.003 A 
ATOM      7  C   UNL     1      -5.305   2.484   0.000  0.00  0.00    +0.013 A 
ATOM      8  C   UNL     1      -4.370   1.312   0.000  0.00  0.00    +0.046 A 
ATOM      9  C   UNL     1      -4.918  -0.085   0.000  0.00  0.00    +0.120 A 
ATOM     12  C   UNL     1      -6.401  -0.308   0.000  0.00  0.00    +0.046 A 
ATOM     13  C   UNL     1      -7.336   0.865   0.000  0.00  0.00    +0.013 A 
BRANCH   9  10
ATOM     10  O   UNL     1      -3.982  -1.257   0.000  0.00  0.00    -0.495 OA
ATOM     11  C   UNL     1      -2.499  -1.034   0.000  0.00  0.00    +0.277 C 
ENDBRANCH   9  10
ENDBRANCH   5   6
TORSDOF 2