REMARK  Name = 642048
REMARK  14 active torsions:
REMARK  status: ('A' for Active; 'I' for Inactive)
REMARK    1  A    between atoms: C_2  and  C_6
REMARK    2  A    between atoms: C_4  and  C_10
REMARK    3  A    between atoms: C_5  and  C_9
REMARK    4  A    between atoms: C_6  and  N_8
REMARK    5  A    between atoms: C_10  and  C_12
REMARK    6  A    between atoms: C_12  and  C_13
REMARK    7  A    between atoms: C_13  and  C_15
REMARK    8  A    between atoms: N_17  and  C_18
REMARK    9  A    between atoms: C_19  and  C_24
REMARK   10  A    between atoms: C_23  and  C_27
REMARK   11  A    between atoms: C_24  and  C_25
REMARK   12  A    between atoms: C_24  and  C_26
REMARK   13  A    between atoms: C_27  and  C_28
REMARK   14  A    between atoms: C_27  and  C_29
REMARK                            x       y       z     vdW  Elec       q    Type
REMARK                         _______ _______ _______ _____ _____    ______ ____
ROOT
ATOM      7  C   UNL     1       9.636  -2.099   0.000  0.00  0.00    +0.225 C 
ATOM     24  O   UNL     1       8.886  -3.398   0.000  0.00  0.00    -0.287 OA
ENDROOT
BRANCH   7   8
ATOM      8  C   UNL     1      11.136  -2.099   0.000  0.00  0.00    +0.284 C 
ATOM      9  N   UNL     1      12.374  -4.243   0.000  0.00  0.00    -0.279 N 
ATOM     10  H   UNL     1      11.881  -5.095   0.000  0.00  0.00    +0.155 HD
ATOM     23  O   UNL     1      11.886  -0.800   0.000  0.00  0.00    -0.267 OA
BRANCH   9  11
ATOM     11  C   UNL     1      13.874  -4.243   0.000  0.00  0.00    +0.041 A 
ATOM     12  C   UNL     1      14.624  -5.542   0.000  0.00  0.00    -0.023 A 
ATOM     16  C   UNL     1      16.124  -5.542   0.000  0.00  0.00    +0.006 A 
ATOM     17  C   UNL     1      16.874  -4.243   0.000  0.00  0.00    +0.001 A 
ATOM     18  C   UNL     1      16.124  -2.944   0.000  0.00  0.00    +0.006 A 
ATOM     19  C   UNL     1      14.624  -2.944   0.000  0.00  0.00    -0.023 A 
BRANCH  12  13
ATOM     13  C   UNL     1      13.874  -6.841   0.000  0.00  0.00    +0.015 C 
ATOM     14  C   UNL     1      14.624  -8.140   0.000  0.00  0.00    +0.012 C 
ATOM     15  C   UNL     1      12.374  -6.841   0.000  0.00  0.00    +0.012 C 
ENDBRANCH  12  13
BRANCH  19  20
ATOM     20  C   UNL     1      13.874  -1.645   0.000  0.00  0.00    +0.015 C 
ATOM     21  C   UNL     1      14.624  -0.345   0.000  0.00  0.00    +0.012 C 
ATOM     22  C   UNL     1      12.374  -1.645   0.000  0.00  0.00    +0.012 C 
ENDBRANCH  19  20
ENDBRANCH   9  11
ENDBRANCH   7   8
BRANCH   7   6
ATOM      6  C   UNL     1       8.886  -0.800   0.000  0.00  0.00    +0.164 C 
BRANCH   6   5
ATOM      5  C   UNL     1       7.386  -0.800   0.000  0.00  0.00    +0.179 C 
ATOM     25  O   UNL     1       6.636  -2.099   0.000  0.00  0.00    -0.291 OA
BRANCH   5   4
ATOM      1  N   UNL     1       6.131   2.873   0.000  0.00  0.00    -0.242 NA
ATOM      2  C   UNL     1       7.246   1.869   0.000  0.00  0.00    +0.057 A 
ATOM      3  C   UNL     1       8.713   2.181   0.000  0.00  0.00    +0.067 C 
ATOM      4  C   UNL     1       6.636   0.499   0.000  0.00  0.00    +0.078 A 
ATOM     26  S   UNL     1       5.144   0.656   0.000  0.00  0.00    -0.062 S 
ATOM     27  C   UNL     1       4.832   2.123   0.000  0.00  0.00    +0.130 A 
BRANCH  27  28
ATOM     28  C   UNL     1       3.462   2.733   0.000  0.00  0.00    +0.102 C 
ATOM     32  S   UNL     1       2.248   1.851   0.000  0.00  0.00    -0.033 S 
BRANCH  28  29
ATOM     29  N   UNL     1       3.305   4.225   0.000  0.00  0.00    -0.350 N 
ATOM     30  H   UNL     1       2.406   4.625   0.000  0.00  0.00    +0.143 HD
ATOM     31  H   UNL     1       4.102   4.803   0.000  0.00  0.00    +0.143 HD
ENDBRANCH  28  29
ENDBRANCH  27  28
ENDBRANCH   5   4
ENDBRANCH   6   5
ENDBRANCH   7   6
TORSDOF 9