REMARK  Name = 637731
REMARK  4 active torsions:
REMARK  status: ('A' for Active; 'I' for Inactive)
REMARK    1  A    between atoms: C_12  and  N_13
REMARK    2  A    between atoms: N_13  and  C_14
REMARK    3  A    between atoms: C_14  and  C_15
REMARK    4  A    between atoms: C_15  and  C_16
REMARK                            x       y       z     vdW  Elec       q    Type
REMARK                         _______ _______ _______ _____ _____    ______ ____
ROOT
ATOM      1  C   UNL     1      -8.718  -8.900   0.000  0.00  0.00    +0.012 A 
ATOM      2  C   UNL     1      -7.419  -8.150   0.000  0.00  0.00    +0.034 A 
ATOM      3  C   UNL     1      -6.120  -8.899   0.000  0.00  0.00    +0.233 C 
ATOM      4  C   UNL     1      -4.821  -8.149   0.000  0.00  0.00    +0.228 C 
ATOM      5  C   UNL     1      -4.821  -6.649   0.000  0.00  0.00    +0.078 C 
ATOM      6  C   UNL     1      -6.120  -5.900   0.000  0.00  0.00    +0.039 C 
ATOM     17  O   UNL     1      -3.522  -8.899   0.000  0.00  0.00    -0.284 OA
ATOM     18  O   UNL     1      -6.120 -10.400   0.000  0.00  0.00    -0.283 OA
ATOM     19  C   UNL     1      -7.419  -6.650   0.000  0.00  0.00    +0.007 A 
ATOM     20  C   UNL     1      -8.718  -5.900   0.000  0.00  0.00    +0.010 A 
ATOM     21  C   UNL     1     -10.017  -6.650   0.000  0.00  0.00    +0.001 A 
ATOM     22  C   UNL     1     -10.017  -8.150   0.000  0.00  0.00    +0.001 A 
ENDROOT
BRANCH   6   7
ATOM      7  N   UNL     1      -6.120  -4.400   0.000  0.00  0.00    -0.343 N 
ATOM      8  H   UNL     1      -6.973  -3.907   0.000  0.00  0.00    +0.146 HD
BRANCH   7   9
ATOM      9  C   UNL     1      -4.821  -3.650   0.000  0.00  0.00    +0.106 C 
BRANCH   9  10
ATOM     10  C   UNL     1      -3.522  -4.399   0.000  0.00  0.00    +0.054 C 
BRANCH  10  11
ATOM     11  C   UNL     1      -2.223  -3.650   0.000  0.00  0.00    -0.046 A 
ATOM     12  C   UNL     1      -0.924  -4.399   0.000  0.00  0.00    +0.004 A 
ATOM     13  C   UNL     1       0.375  -3.650   0.000  0.00  0.00    +0.000 A 
ATOM     14  C   UNL     1       0.375  -2.150   0.000  0.00  0.00    +0.000 A 
ATOM     15  C   UNL     1      -0.924  -1.400   0.000  0.00  0.00    +0.000 A 
ATOM     16  C   UNL     1      -2.223  -2.150   0.000  0.00  0.00    +0.004 A 
ENDBRANCH  10  11
ENDBRANCH   9  10
ENDBRANCH   7   9
ENDBRANCH   6   7
TORSDOF 4