REMARK  Name = 636132
REMARK  7 active torsions:
REMARK  status: ('A' for Active; 'I' for Inactive)
REMARK    1  A    between atoms: C_1  and  C_19
REMARK    2  A    between atoms: C_6  and  C_7
REMARK    3  A    between atoms: C_7  and  C_8
REMARK    4  A    between atoms: C_7  and  C_20
REMARK    5  A    between atoms: C_8  and  C_10
REMARK    6  A    between atoms: N_12  and  C_13
REMARK    7  A    between atoms: C_18  and  C_22
REMARK                            x       y       z     vdW  Elec       q    Type
REMARK                         _______ _______ _______ _____ _____    ______ ____
ROOT
ATOM      7  C   UNL     1      -7.245  -4.500   0.000  0.00  0.00    +0.239 C 
ATOM     19  O   UNL     1      -7.245  -6.000   0.000  0.00  0.00    -0.285 OA
ENDROOT
BRANCH   7   8
ATOM      8  C   UNL     1      -5.946  -3.750   0.000  0.00  0.00    +0.285 C 
ATOM      9  N   UNL     1      -4.647  -4.500   0.000  0.00  0.00    -0.279 N 
ATOM     10  H   UNL     1      -4.647  -5.484   0.000  0.00  0.00    +0.155 HD
ATOM     18  O   UNL     1      -5.946  -2.250   0.000  0.00  0.00    -0.267 OA
BRANCH   9  11
ATOM     11  C   UNL     1      -3.348  -3.750   0.000  0.00  0.00    +0.037 A 
ATOM     12  C   UNL     1      -2.049  -4.500   0.000  0.00  0.00    -0.029 A 
ATOM     13  C   UNL     1      -2.049  -6.000   0.000  0.00  0.00    +0.045 C 
ATOM     14  C   UNL     1      -0.750  -3.750   0.000  0.00  0.00    +0.005 A 
ATOM     15  C   UNL     1      -0.750  -2.250   0.000  0.00  0.00    +0.000 A 
ATOM     16  C   UNL     1      -2.049  -1.500   0.000  0.00  0.00    +0.002 A 
ATOM     17  C   UNL     1      -3.348  -2.250   0.000  0.00  0.00    +0.023 A 
ENDBRANCH   9  11
ENDBRANCH   7   8
BRANCH   7   4
ATOM      4  C   UNL     1      -8.544  -3.750   0.000  0.00  0.00    +0.197 C 
BRANCH   4   3
ATOM      1  C   UNL     1     -11.142  -3.750   0.000  0.00  0.00    -0.046 A 
ATOM      2  C   UNL     1     -11.142  -2.250   0.000  0.00  0.00    +0.044 C 
ATOM      3  C   UNL     1      -9.843  -4.500   0.000  0.00  0.00    -0.020 A 
ATOM     20  C   UNL     1      -9.843  -6.000   0.000  0.00  0.00    +0.005 A 
ATOM     21  C   UNL     1     -11.142  -6.750   0.000  0.00  0.00    +0.000 A 
ATOM     22  C   UNL     1     -12.441  -6.000   0.000  0.00  0.00    +0.000 A 
ATOM     23  C   UNL     1     -12.441  -4.500   0.000  0.00  0.00    +0.003 A 
ENDBRANCH   4   3
BRANCH   4   5
ATOM      5  C   UNL     1      -8.544  -2.250   0.000  0.00  0.00    +0.079 C 
ATOM      6  N   UNL     1      -8.544  -0.750   0.000  0.00  0.00    -0.195 NA
ENDBRANCH   4   5
ENDBRANCH   7   4
TORSDOF 5