REMARK  Name = 642649
REMARK  5 active torsions:
REMARK  status: ('A' for Active; 'I' for Inactive)
REMARK    1  A    between atoms: C_9  and  C_13
REMARK    2  A    between atoms: C_10  and  O_12
REMARK    3  A    between atoms: C_13  and  C_15
REMARK    4  A    between atoms: C_15  and  O_16
REMARK    5  A    between atoms: C_15  and  C_17
REMARK                            x       y       z     vdW  Elec       q    Type
REMARK                         _______ _______ _______ _____ _____    ______ ____
ROOT
ATOM      8  C   UNL     1       8.544   3.000   0.000  0.00  0.00    +0.219 C 
ATOM     21  O   UNL     1       8.544   1.500   0.000  0.00  0.00    -0.287 OA
ENDROOT
BRANCH   8   7
ATOM      1 CL   UNL     1       0.750   6.000   0.000  0.00  0.00    -0.083 Cl
ATOM      2  C   UNL     1       2.049   5.250   0.000  0.00  0.00    +0.043 A 
ATOM      3  C   UNL     1       2.049   3.750   0.000  0.00  0.00    +0.022 A 
ATOM      4  C   UNL     1       3.348   3.000   0.000  0.00  0.00    +0.031 A 
ATOM      5  C   UNL     1       4.647   3.750   0.000  0.00  0.00    +0.090 A 
ATOM      6  N   UNL     1       5.946   3.000   0.000  0.00  0.00    -0.237 NA
ATOM      7  C   UNL     1       7.245   3.750   0.000  0.00  0.00    +0.171 A 
ATOM     22  C   UNL     1       7.245   5.250   0.000  0.00  0.00    +0.243 A 
ATOM     25  N   UNL     1       5.946   6.000   0.000  0.00  0.00    -0.210 NA
ATOM     26  C   UNL     1       4.647   5.250   0.000  0.00  0.00    +0.094 A 
ATOM     27  C   UNL     1       3.348   6.000   0.000  0.00  0.00    +0.050 A 
BRANCH  22  23
ATOM     23  O   UNL     1       8.544   6.000   0.000  0.00  0.00    -0.491 OA
ATOM     24  H   UNL     1       9.356   5.532   0.000  0.00  0.00    +0.294 HD
ENDBRANCH  22  23
ENDBRANCH   8   7
BRANCH   8   9
ATOM      9  C   UNL     1       9.843   3.750   0.000  0.00  0.00    +0.217 C 
BRANCH   9  10
ATOM     10  C   UNL     1      11.142   3.000   0.000  0.00  0.00    -0.008 A 
ATOM     11  C   UNL     1      11.142   1.500   0.000  0.00  0.00    +0.010 A 
ATOM     12  C   UNL     1      12.441   0.750   0.000  0.00  0.00    +0.050 A 
ATOM     13  C   UNL     1      13.740   1.500   0.000  0.00  0.00    +0.166 A 
ATOM     14  O   UNL     1      15.167   1.037   0.000  0.00  0.00    -0.453 OA
ATOM     15  C   UNL     1      16.049   2.250   0.000  0.00  0.00    +0.466 C 
ATOM     16  O   UNL     1      15.167   3.463   0.000  0.00  0.00    -0.453 OA
ATOM     17  C   UNL     1      13.740   3.000   0.000  0.00  0.00    +0.167 A 
ATOM     18  C   UNL     1      12.441   3.750   0.000  0.00  0.00    +0.056 A 
ENDBRANCH   9  10
BRANCH   9  19
ATOM     19  O   UNL     1       9.843   5.250   0.000  0.00  0.00    -0.379 OA
ATOM     20  H   UNL     1      10.683   5.735   0.000  0.00  0.00    +0.211 HD
ENDBRANCH   9  19
ENDBRANCH   8   9
TORSDOF 5