REMARK  Name = 642033
REMARK  13 active torsions:
REMARK  status: ('A' for Active; 'I' for Inactive)
REMARK    1  A    between atoms: C_8  and  C_26
REMARK    2  A    between atoms: C_11  and  C_17
REMARK    3  A    between atoms: C_11  and  C_26
REMARK    4  A    between atoms: N_12  and  N_13
REMARK    5  A    between atoms: N_19  and  C_20
REMARK    6  A    between atoms: C_21  and  C_31
REMARK    7  A    between atoms: C_25  and  C_34
REMARK    8  A    between atoms: C_26  and  C_27
REMARK    9  A    between atoms: C_27  and  O_30
REMARK   10  A    between atoms: C_29  and  O_30
REMARK   11  A    between atoms: C_31  and  C_32
REMARK   12  A    between atoms: C_31  and  C_33
REMARK   13  A    between atoms: C_34  and  C_35
REMARK                            x       y       z     vdW  Elec       q    Type
REMARK                         _______ _______ _______ _____ _____    ______ ____
ROOT
ATOM     10  C   UNL     1      -8.819  -0.275   0.000  0.00  0.00    +0.141 C 
ATOM     26  N   UNL     1     -10.118  -1.025   0.000  0.00  0.00    -0.177 NA
ENDROOT
BRANCH  26  27
ATOM     27  N   UNL     1     -10.118  -2.525   0.000  0.00  0.00    -0.191 N 
ATOM     28  H   UNL     1      -9.265  -3.017   0.000  0.00  0.00    +0.179 HD
ATOM     29  C   UNL     1     -11.417  -3.275   0.000  0.00  0.00    +0.317 C 
ATOM     30  N   UNL     1     -11.417  -4.774   0.000  0.00  0.00    -0.312 N 
ATOM     31  H   UNL     1     -10.564  -5.267   0.000  0.00  0.00    +0.147 HD
ATOM     32  H   UNL     1     -12.269  -5.267   0.000  0.00  0.00    +0.147 HD
ATOM     33  O   UNL     1     -12.716  -2.525   0.000  0.00  0.00    -0.251 OA
ENDBRANCH  26  27
BRANCH  10  11
ATOM     11  C   UNL     1      -7.520  -1.025   0.000  0.00  0.00    +0.265 C 
ATOM     12  N   UNL     1      -7.520  -2.525   0.000  0.00  0.00    -0.280 N 
ATOM     13  H   UNL     1      -8.326  -3.089   0.000  0.00  0.00    +0.155 HD
ATOM     25  O   UNL     1      -6.221  -0.275   0.000  0.00  0.00    -0.268 OA
BRANCH  12  14
ATOM     14  C   UNL     1      -6.110  -3.038   0.000  0.00  0.00    +0.040 A 
ATOM     15  C   UNL     1      -4.961  -2.073   0.000  0.00  0.00    -0.026 A 
ATOM     18  C   UNL     1      -3.552  -2.586   0.000  0.00  0.00    +0.005 A 
ATOM     19  C   UNL     1      -3.291  -4.064   0.000  0.00  0.00    +0.001 A 
ATOM     20  C   UNL     1      -4.440  -5.028   0.000  0.00  0.00    +0.006 A 
ATOM     21  C   UNL     1      -5.850  -4.515   0.000  0.00  0.00    -0.023 A 
BRANCH  21  22
ATOM     22  C   UNL     1      -6.999  -5.479   0.000  0.00  0.00    +0.015 C 
ATOM     23  C   UNL     1      -6.738  -6.956   0.000  0.00  0.00    +0.012 C 
ATOM     24  C   UNL     1      -8.408  -4.966   0.000  0.00  0.00    +0.012 C 
ENDBRANCH  21  22
BRANCH  15  16
ATOM     16  C   UNL     1      -5.222  -0.596   0.000  0.00  0.00    +0.033 C 
ATOM     17  C   UNL     1      -4.072   0.368   0.000  0.00  0.00    +0.009 C 
ENDBRANCH  15  16
ENDBRANCH  12  14
ENDBRANCH  10  11
BRANCH  10   5
ATOM      5  C   UNL     1      -8.819   1.226   0.000  0.00  0.00    +0.203 C 
BRANCH   5   4
ATOM      1  C   UNL     1     -12.716   3.475   0.000  0.00  0.00    +0.089 A 
ATOM      2  N   UNL     1     -11.417   4.226   0.000  0.00  0.00    -0.252 NA
ATOM      3  C   UNL     1     -10.118   3.475   0.000  0.00  0.00    +0.136 A 
ATOM      4  C   UNL     1     -10.118   1.976   0.000  0.00  0.00    +0.080 A 
ATOM     34  N   UNL     1     -11.417   1.226   0.000  0.00  0.00    -0.247 NA
ATOM     35  C   UNL     1     -12.716   1.976   0.000  0.00  0.00    +0.090 A 
ATOM     36  C   UNL     1     -14.015   1.226   0.000  0.00  0.00    +0.030 A 
ATOM     37  C   UNL     1     -15.314   1.976   0.000  0.00  0.00    +0.002 A 
ATOM     38  C   UNL     1     -15.314   3.475   0.000  0.00  0.00    +0.002 A 
ATOM     39  C   UNL     1     -14.015   4.226   0.000  0.00  0.00    +0.030 A 
ENDBRANCH   5   4
BRANCH   5   6
ATOM      6  C   UNL     1      -7.520   1.976   0.000  0.00  0.00    +0.322 C 
ATOM      9  O   UNL     1      -7.520   3.475   0.000  0.00  0.00    -0.250 OA
BRANCH   6   7
ATOM      7  O   UNL     1      -6.221   1.226   0.000  0.00  0.00    -0.467 OA
ATOM      8  C   UNL     1      -4.922   1.976   0.000  0.00  0.00    +0.280 C 
ENDBRANCH   6   7
ENDBRANCH   5   6
ENDBRANCH  10   5
TORSDOF 9