REMARK  Name = 637680
REMARK  6 active torsions:
REMARK  status: ('A' for Active; 'I' for Inactive)
REMARK    1  A    between atoms: C_8  and  C_11
REMARK    2  A    between atoms: C_11  and  C_12
REMARK    3  A    between atoms: N_14  and  C_15
REMARK    4  A    between atoms: C_16  and  O_21
REMARK    5  A    between atoms: O_21  and  C_22
REMARK    6  A    between atoms: C_22  and  C_23
REMARK                            x       y       z     vdW  Elec       q    Type
REMARK                         _______ _______ _______ _____ _____    ______ ____
ROOT
ATOM      6  C   UNL     1       4.821   6.649   0.000  0.00  0.00    +0.120 C 
ENDROOT
BRANCH   6   5
ATOM      1  C   UNL     1      -1.674   5.899   0.000  0.00  0.00    +0.001 A 
ATOM      2  C   UNL     1      -0.375   6.649   0.000  0.00  0.00    +0.016 A 
ATOM      3  C   UNL     1       0.924   5.899   0.000  0.00  0.00    +0.030 A 
ATOM      4  S   UNL     1       2.223   6.649   0.000  0.00  0.00    -0.110 S 
ATOM      5  C   UNL     1       3.522   5.899   0.000  0.00  0.00    +0.146 C 
ATOM     20  C   UNL     1       3.522   4.399   0.000  0.00  0.00    +0.231 C 
ATOM     21  O   UNL     1       4.821   3.650   0.000  0.00  0.00    -0.274 OA
ATOM     22  N   UNL     1       2.223   3.650   0.000  0.00  0.00    -0.284 N 
ATOM     23  H   UNL     1       2.223   2.665   0.000  0.00  0.00    +0.155 HD
ATOM     24  C   UNL     1       0.924   4.399   0.000  0.00  0.00    +0.047 A 
ATOM     25  C   UNL     1      -0.375   3.650   0.000  0.00  0.00    +0.024 A 
ATOM     26  C   UNL     1      -1.674   4.399   0.000  0.00  0.00    +0.002 A 
ENDBRANCH   6   5
BRANCH   6   7
ATOM      7  C   UNL     1       6.120   5.899   0.000  0.00  0.00    +0.219 C 
ATOM      8  N   UNL     1       7.419   6.649   0.000  0.00  0.00    -0.283 N 
ATOM      9  H   UNL     1       8.272   6.157   0.000  0.00  0.00    +0.155 HD
ATOM     19  O   UNL     1       6.120   4.399   0.000  0.00  0.00    -0.275 OA
BRANCH   8  10
ATOM     10  C   UNL     1       7.419   8.149   0.000  0.00  0.00    +0.076 A 
ATOM     11  C   UNL     1       8.718   8.899   0.000  0.00  0.00    +0.027 A 
ATOM     12  C   UNL     1       8.718  10.400   0.000  0.00  0.00    +0.002 A 
ATOM     13  C   UNL     1       7.419  11.150   0.000  0.00  0.00    +0.004 A 
ATOM     14  C   UNL     1       6.120  10.400   0.000  0.00  0.00    +0.047 A 
ATOM     15  C   UNL     1       6.120   8.899   0.000  0.00  0.00    +0.142 A 
BRANCH  15  16
ATOM     16  O   UNL     1       4.821   8.149   0.000  0.00  0.00    -0.490 OA
BRANCH  16  17
ATOM     17  C   UNL     1       3.522   8.899   0.000  0.00  0.00    +0.226 C 
ATOM     18  C   UNL     1       3.522  10.400   0.000  0.00  0.00    +0.048 C 
ENDBRANCH  16  17
ENDBRANCH  15  16
ENDBRANCH   8  10
ENDBRANCH   6   7
TORSDOF 5