REMARK  Name = 635824
REMARK  11 active torsions:
REMARK  status: ('A' for Active; 'I' for Inactive)
REMARK    1  A    between atoms: C_1  and  C_7
REMARK    2  A    between atoms: C_6  and  O_8
REMARK    3  A    between atoms: O_8  and  C_9
REMARK    4  A    between atoms: C_9  and  C_10
REMARK    5  A    between atoms: C_10  and  C_11
REMARK    6  A    between atoms: C_10  and  O_12
REMARK    7  A    between atoms: C_11  and  O_21
REMARK    8  A    between atoms: O_12  and  C_13
REMARK    9  A    between atoms: C_15  and  N_31
REMARK   10  A    between atoms: O_21  and  C_22
REMARK   11  A    between atoms: N_24  and  C_25
REMARK                            x       y       z     vdW  Elec       q    Type
REMARK                         _______ _______ _______ _____ _____    ______ ____
ROOT
ATOM      6  C   UNL     1      -9.843  -7.500   0.000  0.00  0.00    +0.253 C 
ENDROOT
BRANCH   6   5
ATOM      5  C   UNL     1     -11.142  -8.250   0.000  0.00  0.00    +0.277 C 
BRANCH   5   4
ATOM      4  O   UNL     1     -12.441  -7.500   0.000  0.00  0.00    -0.488 OA
BRANCH   4   3
ATOM      1  C   UNL     1     -15.039  -7.500   0.000  0.00  0.00    -0.009 A 
ATOM      2  C   UNL     1     -15.039  -6.000   0.000  0.00  0.00    +0.047 C 
ATOM      3  C   UNL     1     -13.740  -8.250   0.000  0.00  0.00    +0.124 A 
ATOM     30  C   UNL     1     -13.740  -9.750   0.000  0.00  0.00    +0.046 A 
ATOM     31  C   UNL     1     -15.039 -10.500   0.000  0.00  0.00    +0.004 A 
ATOM     32  C   UNL     1     -16.339  -9.750   0.000  0.00  0.00    +0.000 A 
ATOM     33  C   UNL     1     -16.339  -8.250   0.000  0.00  0.00    +0.007 A 
ENDBRANCH   4   3
ENDBRANCH   5   4
ENDBRANCH   6   5
BRANCH   6   7
ATOM      7  O   UNL     1      -9.843  -6.000   0.000  0.00  0.00    -0.440 OA
BRANCH   7   8
ATOM      8  C   UNL     1      -8.544  -5.250   0.000  0.00  0.00    +0.405 C 
ATOM      9  N   UNL     1      -8.544  -3.750   0.000  0.00  0.00    -0.251 N 
ATOM     10  H   UNL     1      -9.397  -3.258   0.000  0.00  0.00    +0.158 HD
ATOM     17  O   UNL     1      -7.245  -6.000   0.000  0.00  0.00    -0.226 OA
BRANCH   9  11
ATOM     11  C   UNL     1      -7.245  -3.000   0.000  0.00  0.00    +0.036 A 
ATOM     12  C   UNL     1      -7.245  -1.500   0.000  0.00  0.00    +0.023 A 
ATOM     13  C   UNL     1      -5.946  -0.750   0.000  0.00  0.00    +0.002 A 
ATOM     14  C   UNL     1      -4.647  -1.500   0.000  0.00  0.00    +0.000 A 
ATOM     15  C   UNL     1      -4.647  -3.000   0.000  0.00  0.00    +0.002 A 
ATOM     16  C   UNL     1      -5.946  -3.750   0.000  0.00  0.00    +0.023 A 
ENDBRANCH   9  11
ENDBRANCH   7   8
ENDBRANCH   6   7
BRANCH   6  18
ATOM     18  C   UNL     1      -8.544  -8.250   0.000  0.00  0.00    +0.282 C 
BRANCH  18  19
ATOM     19  O   UNL     1      -7.245  -7.500   0.000  0.00  0.00    -0.446 OA
BRANCH  19  20
ATOM     20  C   UNL     1      -5.946  -8.250   0.000  0.00  0.00    +0.405 C 
ATOM     21  N   UNL     1      -4.647  -7.500   0.000  0.00  0.00    -0.251 N 
ATOM     22  H   UNL     1      -4.647  -6.516   0.000  0.00  0.00    +0.158 HD
ATOM     29  O   UNL     1      -5.946  -9.750   0.000  0.00  0.00    -0.226 OA
BRANCH  21  23
ATOM     23  C   UNL     1      -3.348  -8.250   0.000  0.00  0.00    +0.036 A 
ATOM     24  C   UNL     1      -2.049  -7.500   0.000  0.00  0.00    +0.023 A 
ATOM     25  C   UNL     1      -0.750  -8.250   0.000  0.00  0.00    +0.002 A 
ATOM     26  C   UNL     1      -0.750  -9.750   0.000  0.00  0.00    +0.000 A 
ATOM     27  C   UNL     1      -2.049 -10.500   0.000  0.00  0.00    +0.002 A 
ATOM     28  C   UNL     1      -3.348  -9.750   0.000  0.00  0.00    +0.023 A 
ENDBRANCH  21  23
ENDBRANCH  19  20
ENDBRANCH  18  19
ENDBRANCH   6  18
TORSDOF 10