REMARK  Name = 635542
REMARK  8 active torsions:
REMARK  status: ('A' for Active; 'I' for Inactive)
REMARK    1  A    between atoms: C_9  and  C_14
REMARK    2  A    between atoms: C_10  and  C_13
REMARK    3  A    between atoms: C_14  and  C_16
REMARK    4  A    between atoms: C_16  and  C_17
REMARK    5  A    between atoms: C_17  and  C_25
REMARK    6  A    between atoms: N_18  and  N_19
REMARK    7  A    between atoms: C_20  and  C_22
REMARK    8  A    between atoms: C_22  and  C_23
REMARK                            x       y       z     vdW  Elec       q    Type
REMARK                         _______ _______ _______ _____ _____    ______ ____
ROOT
ATOM      5  C   UNL     1       7.245   5.250   0.000  0.00  0.00    +0.240 C 
ATOM     21  O   UNL     1       7.245   6.750   0.000  0.00  0.00    -0.285 OA
ENDROOT
BRANCH   5   4
ATOM      1  C   UNL     1       2.049   5.250   0.000  0.00  0.00    +0.086 A 
ATOM      2  C   UNL     1       3.348   4.500   0.000  0.00  0.00    +0.293 A 
ATOM      3  N   UNL     1       4.647   5.250   0.000  0.00  0.00    -0.150 N 
ATOM      4  C   UNL     1       5.946   4.500   0.000  0.00  0.00    +0.331 A 
ATOM     22  C   UNL     1       5.946   3.000   0.000  0.00  0.00    +0.269 A 
ATOM     23  C   UNL     1       7.245   2.250   0.000  0.00  0.00    +0.131 C 
ATOM     24  N   UNL     1       4.647   2.250   0.000  0.00  0.00    -0.157 N 
ATOM     25  O   UNL     1       4.647   0.750   0.000  0.00  0.00    -0.619 OA
ATOM     26  O   UNL     1       4.647   6.750   0.000  0.00  0.00    -0.619 OA
ATOM     27  C   UNL     1       3.348   3.000   0.000  0.00  0.00    +0.292 A 
ATOM     28  C   UNL     1       2.049   2.250   0.000  0.00  0.00    +0.086 A 
ATOM     29  C   UNL     1       0.750   3.000   0.000  0.00  0.00    +0.007 A 
ATOM     30  C   UNL     1       0.750   4.500   0.000  0.00  0.00    +0.007 A 
ENDBRANCH   5   4
BRANCH   5   6
ATOM      6  C   UNL     1       8.544   4.500   0.000  0.00  0.00    +0.148 C 
BRANCH   6   7
ATOM      7  C   UNL     1       9.843   5.250   0.000  0.00  0.00    +0.128 C 
ATOM     13  N   UNL     1      11.142   4.500   0.000  0.00  0.00    -0.179 NA
BRANCH   7   8
ATOM      8  C   UNL     1       9.843   6.750   0.000  0.00  0.00    +0.258 C 
ATOM      9  N   UNL     1      11.142   7.500   0.000  0.00  0.00    -0.324 N 
ATOM     10  H   UNL     1      11.142   8.484   0.000  0.00  0.00    +0.145 HD
ATOM     11  H   UNL     1      11.995   7.008   0.000  0.00  0.00    +0.145 HD
ATOM     12  O   UNL     1       8.544   7.500   0.000  0.00  0.00    -0.269 OA
ENDBRANCH   7   8
BRANCH  13  14
ATOM     14  N   UNL     1      12.441   5.250   0.000  0.00  0.00    -0.206 N 
ATOM     15  H   UNL     1      12.441   6.234   0.000  0.00  0.00    +0.177 HD
ATOM     16  C   UNL     1      13.740   4.500   0.000  0.00  0.00    +0.246 C 
ATOM     20  O   UNL     1      13.740   3.000   0.000  0.00  0.00    -0.273 OA
BRANCH  16  17
ATOM     17  C   UNL     1      15.039   5.250   0.000  0.00  0.00    +0.215 C 
BRANCH  17  18
ATOM     18  C   UNL     1      16.339   4.500   0.000  0.00  0.00    +0.072 C 
ATOM     19  N   UNL     1      17.637   3.750   0.000  0.00  0.00    -0.196 NA
ENDBRANCH  17  18
ENDBRANCH  16  17
ENDBRANCH  13  14
ENDBRANCH   6   7
ENDBRANCH   5   6
TORSDOF 7