REMARK  Name = 640985
REMARK  8 active torsions:
REMARK  status: ('A' for Active; 'I' for Inactive)
REMARK    1  A    between atoms: C_7  and  C_11
REMARK    2  A    between atoms: C_11  and  C_12
REMARK    3  A    between atoms: C_11  and  C_24
REMARK    4  A    between atoms: C_12  and  C_14
REMARK    5  A    between atoms: C_24  and  C_26
REMARK    6  A    between atoms: N_28  and  C_29
REMARK    7  A    between atoms: C_31  and  C_36
REMARK    8  A    between atoms: C_34  and  C_35
REMARK                            x       y       z     vdW  Elec       q    Type
REMARK                         _______ _______ _______ _____ _____    ______ ____
ROOT
ATOM      4  C   UNL     1      -1.401   6.524   0.000  0.00  0.00    +0.181 C 
ENDROOT
BRANCH   4   3
ATOM      1  C   UNL     1      -4.590   5.384   0.000  0.00  0.00    +0.008 A 
ATOM      2  C   UNL     1      -3.291   4.634   0.000  0.00  0.00    +0.008 A 
ATOM      3  C   UNL     1      -1.864   5.097   0.000  0.00  0.00    +0.226 C 
ATOM     31  O   UNL     1      -0.983   3.884   0.000  0.00  0.00    -0.452 OA
ATOM     32  C   UNL     1      -1.864   2.670   0.000  0.00  0.00    +0.340 C 
ATOM     33  O   UNL     1      -1.401   1.244   0.000  0.00  0.00    -0.245 OA
ATOM     34  C   UNL     1      -3.291   3.134   0.000  0.00  0.00    +0.066 A 
ATOM     35  C   UNL     1      -4.590   2.384   0.000  0.00  0.00    +0.015 A 
ATOM     36  C   UNL     1      -5.889   3.134   0.000  0.00  0.00    +0.001 A 
ATOM     37  C   UNL     1      -5.889   4.634   0.000  0.00  0.00    +0.000 A 
ENDBRANCH   4   3
BRANCH   4   5
ATOM      5  C   UNL     1      -2.404   7.639   0.000  0.00  0.00    +0.232 C 
ATOM     18  O   UNL     1      -3.872   7.327   0.000  0.00  0.00    -0.286 OA
BRANCH   5   6
ATOM      6  C   UNL     1      -1.941   9.065   0.000  0.00  0.00    +0.285 C 
ATOM      7  N   UNL     1      -0.473   9.377   0.000  0.00  0.00    -0.279 N 
ATOM      8  H   UNL     1       0.185   8.645   0.000  0.00  0.00    +0.155 HD
ATOM     17  O   UNL     1      -2.945  10.180   0.000  0.00  0.00    -0.267 OA
BRANCH   7   9
ATOM      9  C   UNL     1      -0.010  10.804   0.000  0.00  0.00    +0.037 A 
ATOM     10  C   UNL     1      -1.014  11.918   0.000  0.00  0.00    -0.029 A 
ATOM     11  C   UNL     1      -2.481  11.607   0.000  0.00  0.00    +0.045 C 
ATOM     12  C   UNL     1      -0.550  13.345   0.000  0.00  0.00    +0.005 A 
ATOM     13  C   UNL     1       0.917  13.657   0.000  0.00  0.00    +0.004 A 
ATOM     14  C   UNL     1       1.921  12.542   0.000  0.00  0.00    -0.049 A 
ATOM     15  C   UNL     1       3.388  12.854   0.000  0.00  0.00    +0.044 C 
ATOM     16  C   UNL     1       1.457  11.116   0.000  0.00  0.00    +0.027 A 
ENDBRANCH   7   9
ENDBRANCH   5   6
ENDBRANCH   4   5
BRANCH   4  19
ATOM     19  C   UNL     1       0.067   6.836   0.000  0.00  0.00    +0.178 C 
ATOM     30  O   UNL     1       0.530   8.262   0.000  0.00  0.00    -0.291 OA
BRANCH  19  20
ATOM     20  C   UNL     1       1.070   5.721   0.000  0.00  0.00    +0.019 A 
ATOM     21  C   UNL     1       2.538   6.033   0.000  0.00  0.00    +0.012 A 
ATOM     22  C   UNL     1       3.541   4.918   0.000  0.00  0.00    +0.009 A 
ATOM     23  C   UNL     1       3.078   3.492   0.000  0.00  0.00    -0.018 A 
ATOM     24  C   UNL     1       4.081   2.377   0.000  0.00  0.00    +0.008 A 
ATOM     25  C   UNL     1       3.618   0.950   0.000  0.00  0.00    +0.001 A 
ATOM     26  C   UNL     1       2.151   0.638   0.000  0.00  0.00    +0.001 A 
ATOM     27  C   UNL     1       1.147   1.753   0.000  0.00  0.00    +0.008 A 
ATOM     28  C   UNL     1       1.611   3.180   0.000  0.00  0.00    -0.017 A 
ATOM     29  C   UNL     1       0.607   4.295   0.000  0.00  0.00    +0.020 A 
ENDBRANCH  19  20
ENDBRANCH   4  19
TORSDOF 6