REMARK  Name = 636084
REMARK  7 active torsions:
REMARK  status: ('A' for Active; 'I' for Inactive)
REMARK    1  A    between atoms: C_1  and  C_2
REMARK    2  A    between atoms: C_4  and  C_8
REMARK    3  A    between atoms: C_8  and  C_10
REMARK    4  A    between atoms: C_10  and  C_19
REMARK    5  A    between atoms: C_11  and  C_12
REMARK    6  A    between atoms: C_19  and  C_21
REMARK    7  A    between atoms: C_21  and  O_22
REMARK                            x       y       z     vdW  Elec       q    Type
REMARK                         _______ _______ _______ _____ _____    ______ ____
ROOT
ATOM      8  C   UNL     1      -0.112   0.533   0.000  0.00  0.00    +0.072 C 
ATOM     15  C   UNL     1       1.226   1.211   0.000  0.00  0.00    +0.023 C 
ENDROOT
BRANCH  15  16
ATOM     16  C   UNL     1       2.606   0.622   0.000  0.00  0.00    -0.023 A 
ATOM     17  C   UNL     1       2.785  -0.868   0.000  0.00  0.00    +0.008 A 
ATOM     18  C   UNL     1       4.164  -1.457   0.000  0.00  0.00    +0.002 A 
ATOM     19  C   UNL     1       5.364  -0.557   0.000  0.00  0.00    +0.020 A 
ATOM     20  C   UNL     1       5.185   0.932   0.000  0.00  0.00    +0.042 A 
ATOM     21 CL   UNL     1       6.385   1.832   0.000  0.00  0.00    -0.084 Cl
ATOM     22  C   UNL     1       3.806   1.522   0.000  0.00  0.00    +0.028 A 
ENDBRANCH  15  16
BRANCH   8   7
ATOM      7  C   UNL     1      -1.368   1.353   0.000  0.00  0.00    +0.170 C 
ATOM     23  O   UNL     1      -1.286   2.851   0.000  0.00  0.00    -0.292 OA
BRANCH   7   6
ATOM      1  C   UNL     1      -6.556   1.638   0.000  0.00  0.00    +0.007 C 
ATOM      2  C   UNL     1      -5.300   0.818   0.000  0.00  0.00    -0.013 C 
ATOM      3  C   UNL     1      -5.383  -0.680   0.000  0.00  0.00    +0.003 C 
ATOM      4  C   UNL     1      -4.127  -1.500   0.000  0.00  0.00    +0.001 C 
ATOM      5  C   UNL     1      -2.788  -0.822   0.000  0.00  0.00    +0.011 C 
ATOM      6  C   UNL     1      -2.706   0.676   0.000  0.00  0.00    +0.061 C 
ATOM     24  C   UNL     1      -3.962   1.496   0.000  0.00  0.00    +0.014 C 
ENDBRANCH   7   6
ENDBRANCH   8   7
BRANCH   8   9
ATOM      9  C   UNL     1      -0.194  -0.964   0.000  0.00  0.00    +0.272 C 
ATOM     14  O   UNL     1      -1.532  -1.642   0.000  0.00  0.00    -0.280 OA
BRANCH   9  10
ATOM     10  C   UNL     1       0.900  -1.990   0.000  0.00  0.00    +0.378 C 
ATOM     11  O   UNL     1       2.336  -1.555   0.000  0.00  0.00    -0.241 OA
BRANCH  10  12
ATOM     12  O   UNL     1       0.559  -3.451   0.000  0.00  0.00    -0.475 OA
ATOM     13  H   UNL     1      -0.337  -3.722   0.000  0.00  0.00    +0.296 HD
ENDBRANCH  10  12
ENDBRANCH   9  10
ENDBRANCH   8   9
TORSDOF 6