REMARK  Name = 639754
REMARK  5 active torsions:
REMARK  status: ('A' for Active; 'I' for Inactive)
REMARK    1  A    between atoms: N_1  and  C_5
REMARK    2  A    between atoms: C_5  and  C_6
REMARK    3  A    between atoms: C_16  and  O_18
REMARK    4  A    between atoms: O_18  and  C_19
REMARK    5  A    between atoms: C_19  and  C_20
REMARK                            x       y       z     vdW  Elec       q    Type
REMARK                         _______ _______ _______ _____ _____    ______ ____
ROOT
ATOM      6  C   UNL     1      -2.596   0.464   0.000  0.00  0.00    -0.026 A 
ATOM      7  C   UNL     1      -1.548   1.536   0.000  0.00  0.00    +0.033 A 
ATOM      8  C   UNL     1      -0.094   1.165   0.000  0.00  0.00    +0.068 A 
ATOM      9  N   UNL     1       1.154   1.996   0.000  0.00  0.00    -0.326 N 
ATOM     10  H   UNL     1       1.195   2.979   0.000  0.00  0.00    +0.169 HD
ATOM     11  C   UNL     1       2.331   1.065   0.000  0.00  0.00    +0.203 A 
ATOM     12  N   UNL     1       3.775   1.469   0.000  0.00  0.00    -0.221 N 
ATOM     13  H   UNL     1       4.019   2.423   0.000  0.00  0.00    +0.161 HD
ATOM     14  C   UNL     1       4.848   0.421   0.000  0.00  0.00    +0.407 C 
ATOM     18  O   UNL     1       4.476  -1.033   0.000  0.00  0.00    -0.226 OA
ATOM     19  N   UNL     1       1.809  -0.342   0.000  0.00  0.00    -0.214 NA
ATOM     20  C   UNL     1       0.310  -0.280   0.000  0.00  0.00    +0.091 A 
ATOM     21  C   UNL     1      -0.739  -1.353   0.000  0.00  0.00    +0.030 A 
ATOM     22  C   UNL     1      -2.192  -0.981   0.000  0.00  0.00    +0.007 A 
ENDROOT
BRANCH   6   5
ATOM      5  C   UNL     1      -4.049   0.836   0.000  0.00  0.00    +0.156 C 
BRANCH   5   1
ATOM      1  N   UNL     1      -5.098  -0.237   0.000  0.00  0.00    -0.349 N 
ATOM      2  C   UNL     1      -6.582  -0.019   0.000  0.00  0.00    +0.086 A 
ATOM      3  C   UNL     1      -7.248  -1.363   0.000  0.00  0.00    +0.019 A 
ATOM      4  C   UNL     1      -6.176  -2.412   0.000  0.00  0.00    +0.019 A 
ATOM     23  C   UNL     1      -4.847  -1.716   0.000  0.00  0.00    +0.086 A 
ENDBRANCH   5   1
ENDBRANCH   6   5
BRANCH  14  15
ATOM     15  O   UNL     1       6.292   0.825   0.000  0.00  0.00    -0.450 OA
BRANCH  15  16
ATOM     16  C   UNL     1       7.364  -0.224   0.000  0.00  0.00    +0.230 C 
ATOM     17  C   UNL     1       8.809   0.181   0.000  0.00  0.00    +0.048 C 
ENDBRANCH  15  16
ENDBRANCH  14  15
TORSDOF 4