REMARK  Name = 637833
REMARK  9 active torsions:
REMARK  status: ('A' for Active; 'I' for Inactive)
REMARK    1  A    between atoms: C_1  and  S_2
REMARK    2  A    between atoms: C_1  and  C_13
REMARK    3  A    between atoms: S_2  and  C_3
REMARK    4  A    between atoms: C_3  and  S_4
REMARK    5  A    between atoms: C_3  and  S_8
REMARK    6  A    between atoms: S_4  and  C_5
REMARK    7  A    between atoms: C_5  and  C_6
REMARK    8  A    between atoms: S_8  and  C_9
REMARK    9  A    between atoms: C_9  and  C_11
REMARK                            x       y       z     vdW  Elec       q    Type
REMARK                         _______ _______ _______ _____ _____    ______ ____
ROOT
ATOM      5  C   UNL     1       6.865   1.232   0.000  0.00  0.00    +0.183 C 
ENDROOT
BRANCH   5   4
ATOM      4  S   UNL     1       6.115  -0.067   0.000  0.00  0.00    -0.062 S 
BRANCH   4   1
ATOM      1  C   UNL     1       4.615  -0.067   0.000  0.00  0.00    +0.188 C 
ATOM      2  C   UNL     1       3.865   1.232   0.000  0.00  0.00    +0.099 C 
ATOM      3  O   UNL     1       3.865  -1.366   0.000  0.00  0.00    -0.285 OA
ENDBRANCH   4   1
ENDBRANCH   5   4
BRANCH   5   6
ATOM      6  S   UNL     1       8.365   1.232   0.000  0.00  0.00    -0.062 S 
BRANCH   6   7
ATOM      7  C   UNL     1       9.115  -0.067   0.000  0.00  0.00    +0.188 C 
ATOM      8  C   UNL     1      10.615  -0.067   0.000  0.00  0.00    +0.099 C 
ATOM      9  O   UNL     1       8.365  -1.366   0.000  0.00  0.00    -0.285 OA
ENDBRANCH   6   7
ENDBRANCH   5   6
BRANCH   5  10
ATOM     10  S   UNL     1       6.115   2.531   0.000  0.00  0.00    -0.062 S 
BRANCH  10  11
ATOM     11  C   UNL     1       6.865   3.830   0.000  0.00  0.00    +0.188 C 
ATOM     12  O   UNL     1       8.365   3.830   0.000  0.00  0.00    -0.285 OA
ATOM     13  C   UNL     1       6.115   5.130   0.000  0.00  0.00    +0.099 C 
ENDBRANCH  10  11
ENDBRANCH   5  10
TORSDOF 6