REMARK  Name = 636126
REMARK  7 active torsions:
REMARK  status: ('A' for Active; 'I' for Inactive)
REMARK    1  A    between atoms: C_6  and  C_7
REMARK    2  A    between atoms: C_7  and  C_9
REMARK    3  A    between atoms: C_9  and  C_10
REMARK    4  A    between atoms: C_10  and  C_12
REMARK    5  A    between atoms: N_14  and  C_15
REMARK    6  A    between atoms: C_17  and  C_21
REMARK    7  A    between atoms: C_18  and  C_22
REMARK                            x       y       z     vdW  Elec       q    Type
REMARK                         _______ _______ _______ _____ _____    ______ ____
ROOT
ATOM      6  C   UNL     1      -7.245  -3.000   0.000  0.00  0.00    +0.284 C 
ATOM      7  N   UNL     1      -5.946  -2.250   0.000  0.00  0.00    -0.279 N 
ATOM      8  H   UNL     1      -5.946  -1.266   0.000  0.00  0.00    +0.155 HD
ATOM     17  O   UNL     1      -7.245  -4.500   0.000  0.00  0.00    -0.267 OA
ENDROOT
BRANCH   7   9
ATOM      9  C   UNL     1      -4.647  -3.000   0.000  0.00  0.00    +0.034 A 
ATOM     10  C   UNL     1      -4.647  -4.500   0.000  0.00  0.00    +0.023 A 
ATOM     11  C   UNL     1      -3.348  -5.250   0.000  0.00  0.00    +0.005 A 
ATOM     12  C   UNL     1      -2.049  -4.500   0.000  0.00  0.00    -0.047 A 
ATOM     13  C   UNL     1      -0.750  -5.250   0.000  0.00  0.00    +0.044 C 
ATOM     14  C   UNL     1      -2.049  -3.000   0.000  0.00  0.00    -0.046 A 
ATOM     15  C   UNL     1      -0.750  -2.250   0.000  0.00  0.00    +0.044 C 
ATOM     16  C   UNL     1      -3.348  -2.250   0.000  0.00  0.00    +0.027 A 
ENDBRANCH   7   9
BRANCH   6   5
ATOM      5  C   UNL     1      -8.544  -2.250   0.000  0.00  0.00    +0.225 C 
ATOM     18  O   UNL     1      -8.544  -0.750   0.000  0.00  0.00    -0.287 OA
BRANCH   5   4
ATOM      4  C   UNL     1      -9.843  -3.000   0.000  0.00  0.00    +0.164 C 
BRANCH   4   3
ATOM      3  C   UNL     1     -11.142  -2.250   0.000  0.00  0.00    +0.171 C 
ATOM     19  O   UNL     1     -11.142  -0.750   0.000  0.00  0.00    -0.292 OA
BRANCH   3   2
ATOM      1  C   UNL     1     -13.740  -2.250   0.000  0.00  0.00    +0.011 A 
ATOM      2  C   UNL     1     -12.441  -3.000   0.000  0.00  0.00    +0.018 A 
ATOM     20  C   UNL     1     -12.441  -4.500   0.000  0.00  0.00    +0.011 A 
ATOM     21  C   UNL     1     -13.740  -5.250   0.000  0.00  0.00    +0.001 A 
ATOM     22  C   UNL     1     -15.039  -4.500   0.000  0.00  0.00    +0.000 A 
ATOM     23  C   UNL     1     -15.039  -3.000   0.000  0.00  0.00    +0.001 A 
ENDBRANCH   3   2
ENDBRANCH   4   3
ENDBRANCH   5   4
ENDBRANCH   6   5
TORSDOF 5