REMARK  Name = 635968
REMARK  4 active torsions:
REMARK  status: ('A' for Active; 'I' for Inactive)
REMARK    1  A    between atoms: C_1  and  C_8
REMARK    2  A    between atoms: C_5  and  C_7
REMARK    3  A    between atoms: C_8  and  C_9
REMARK    4  A    between atoms: C_8  and  C_10
REMARK                            x       y       z     vdW  Elec       q    Type
REMARK                         _______ _______ _______ _____ _____    ______ ____
ROOT
ATOM      1  C   UNL     1      -0.358   0.262   0.000  0.00  0.00    +0.220 C 
ATOM      5  N   UNL     1      -0.705  -1.197   0.000  0.00  0.00    -0.239 NA
ATOM      6  C   UNL     1       0.576  -1.978   0.000  0.00  0.00    +0.193 C 
ATOM      7  C   UNL     1       0.698  -3.473   0.000  0.00  0.00    +0.109 C 
ATOM      8  O   UNL     1       1.715  -1.001   0.000  0.00  0.00    -0.410 OA
ATOM      9  C   UNL     1       1.137   0.383   0.000  0.00  0.00    +0.338 C 
ATOM     10  O   UNL     1       1.918   1.664   0.000  0.00  0.00    -0.248 OA
ENDROOT
BRANCH   1   2
ATOM      2  C   UNL     1      -1.335   1.400   0.000  0.00  0.00    +0.018 C 
ATOM      3  C   UNL     1      -2.809   1.123   0.000  0.00  0.00    +0.010 C 
ATOM      4  C   UNL     1      -0.838   2.816   0.000  0.00  0.00    +0.010 C 
ENDBRANCH   1   2
TORSDOF 1