REMARK  Name = NSC 785170#1
REMARK  4 active torsions:
REMARK  status: ('A' for Active; 'I' for Inactive)
REMARK    1  A    between atoms: C_2  and  O_3
REMARK    2  A    between atoms: O_3  and  C_4
REMARK    3  A    between atoms: C_5  and  O_6
REMARK    4  A    between atoms: N_13  and  C_14
REMARK                            x       y       z     vdW  Elec       q    Type
REMARK                         _______ _______ _______ _____ _____    ______ ____
ROOT
ATOM      1  C   UNL     1      -7.613   5.708   0.000  0.00  0.00    +0.053 A 
ATOM      2  C   UNL     1      -8.913   4.960   0.000  0.00  0.00    +0.162 A 
ATOM      5  C   UNL     1      -8.915   3.459   0.000  0.00  0.00    +0.167 A 
ATOM      8  C   UNL     1      -7.617   2.708   0.000  0.00  0.00    +0.032 A 
ATOM      9  C   UNL     1      -7.619   1.208   0.000  0.00  0.00    -0.011 A 
ATOM     10  C   UNL     1      -6.321   0.456   0.000  0.00  0.00    -0.038 A 
ATOM     11  C   UNL     1      -5.021   1.205   0.000  0.00  0.00    +0.059 C 
ATOM     12  C   UNL     1      -5.019   2.705   0.000  0.00  0.00    +0.092 C 
ATOM     13  N   UNL     1      -3.719   3.453   0.000  0.00  0.00    -0.298 NA
ATOM     14  C   UNL     1      -2.421   2.702   0.000  0.00  0.00    +0.105 C 
ATOM     15  C   UNL     1      -3.717   4.953   0.000  0.00  0.00    +0.089 C 
ATOM     16  C   UNL     1      -5.015   5.705   0.000  0.00  0.00    +0.051 C 
ATOM     17  C   UNL     1      -6.322  -1.044   0.000  0.00  0.00    +0.004 A 
ATOM     18  C   UNL     1      -7.622  -1.792   0.000  0.00  0.00    +0.000 A 
ATOM     19  C   UNL     1      -8.921  -1.041   0.000  0.00  0.00    +0.001 A 
ATOM     20  C   UNL     1      -8.919   0.460   0.000  0.00  0.00    +0.009 A 
ATOM     21  C   UNL     1      -6.317   3.456   0.000  0.00  0.00    -0.015 A 
ATOM     22  C   UNL     1      -6.315   4.956   0.000  0.00  0.00    -0.037 A 
ENDROOT
BRANCH   2   3
ATOM      3  O   UNL     1     -10.211   5.711   0.000  0.00  0.00    -0.491 OA
ATOM      4  C   UNL     1     -10.210   7.211   0.000  0.00  0.00    +0.277 C 
ENDBRANCH   2   3
BRANCH   5   6
ATOM      6  O   UNL     1     -10.215   2.711   0.000  0.00  0.00    -0.503 OA
ATOM      7  H   UNL     1     -11.026   3.181   0.000  0.00  0.00    +0.292 HD
ENDBRANCH   5   6
TORSDOF 2