REMARK  Name = NSC 785171
REMARK  8 active torsions:
REMARK  status: ('A' for Active; 'I' for Inactive)
REMARK    1  A    between atoms: O_1  and  C_2
REMARK    2  A    between atoms: O_1  and  C_31
REMARK    3  A    between atoms: C_3  and  O_28
REMARK    4  A    between atoms: N_8  and  C_9
REMARK    5  A    between atoms: C_11  and  O_12
REMARK    6  A    between atoms: O_12  and  C_13
REMARK    7  A    between atoms: C_13  and  C_15
REMARK    8  A    between atoms: O_28  and  C_29
REMARK                            x       y       z     vdW  Elec       q    Type
REMARK                         _______ _______ _______ _____ _____    ______ ____
ROOT
ATOM      2  C   UNL     1      -4.647  12.000   0.000  0.00  0.00    +0.170 A 
ATOM      3  C   UNL     1      -3.348  12.750   0.000  0.00  0.00    +0.162 A 
ATOM      4  C   UNL     1      -2.049  12.000   0.000  0.00  0.00    +0.053 A 
ATOM      5  C   UNL     1      -2.049  10.500   0.000  0.00  0.00    -0.033 A 
ATOM      6  C   UNL     1      -0.750   9.750   0.000  0.00  0.00    +0.055 C 
ATOM      7  C   UNL     1      -0.750   8.250   0.000  0.00  0.00    +0.109 C 
ATOM      8  N   UNL     1      -2.049   7.500   0.000  0.00  0.00    -0.329 N 
ATOM      9  C   UNL     1      -2.049   6.000   0.000  0.00  0.00    +0.129 C 
ATOM     10  C   UNL     1      -3.348   8.250   0.000  0.00  0.00    +0.081 A 
ATOM     11  C   UNL     1      -4.647   7.500   0.000  0.00  0.00    +0.161 A 
ATOM     21  C   UNL     1      -5.946   8.250   0.000  0.00  0.00    +0.027 A 
ATOM     22  C   UNL     1      -7.245   7.500   0.000  0.00  0.00    +0.012 A 
ATOM     23  C   UNL     1      -8.544   8.250   0.000  0.00  0.00    +0.001 A 
ATOM     24  C   UNL     1      -8.544   9.750   0.000  0.00  0.00    +0.001 A 
ATOM     25  C   UNL     1      -7.245  10.500   0.000  0.00  0.00    +0.009 A 
ATOM     26  C   UNL     1      -5.946   9.750   0.000  0.00  0.00    -0.003 A 
ATOM     27  C   UNL     1      -3.348   9.750   0.000  0.00  0.00    +0.014 A 
ATOM     30  C   UNL     1      -4.647  10.500   0.000  0.00  0.00    +0.037 A 
ENDROOT
BRANCH   2   1
ATOM      1  O   UNL     1      -5.946  12.750   0.000  0.00  0.00    -0.491 OA
ATOM     31  C   UNL     1      -7.245  12.000   0.000  0.00  0.00    +0.277 C 
ENDBRANCH   2   1
BRANCH   3  28
ATOM     28  O   UNL     1      -3.348  14.250   0.000  0.00  0.00    -0.491 OA
ATOM     29  C   UNL     1      -2.049  15.000   0.000  0.00  0.00    +0.277 C 
ENDBRANCH   3  28
BRANCH  11  12
ATOM     12  O   UNL     1      -4.647   6.000   0.000  0.00  0.00    -0.420 OA
BRANCH  12  13
ATOM     13  C   UNL     1      -5.946   5.250   0.000  0.00  0.00    +0.345 C 
ATOM     14  O   UNL     1      -7.245   6.000   0.000  0.00  0.00    -0.245 OA
BRANCH  13  15
ATOM     15  C   UNL     1      -5.946   3.750   0.000  0.00  0.00    +0.059 A 
ATOM     16  C   UNL     1      -4.647   3.000   0.000  0.00  0.00    +0.015 A 
ATOM     17  C   UNL     1      -4.647   1.500   0.000  0.00  0.00    +0.001 A 
ATOM     18  C   UNL     1      -5.946   0.750   0.000  0.00  0.00    +0.000 A 
ATOM     19  C   UNL     1      -7.245   1.500   0.000  0.00  0.00    +0.001 A 
ATOM     20  C   UNL     1      -7.245   3.000   0.000  0.00  0.00    +0.015 A 
ENDBRANCH  13  15
ENDBRANCH  12  13
ENDBRANCH  11  12
TORSDOF 5