REMARK  Name = NSC 8751
REMARK  3 active torsions:
REMARK  status: ('A' for Active; 'I' for Inactive)
REMARK    1  A    between atoms: C_2  and  C_3
REMARK    2  A    between atoms: C_4  and  C_5
REMARK    3  A    between atoms: C_5  and  O_6
REMARK                            x       y       z     vdW  Elec       q    Type
REMARK                         _______ _______ _______ _____ _____    ______ ____
ROOT
ATOM      4  C   UNL     1       5.149  -0.375   0.000  0.00  0.00    +0.329 C 
ATOM      7  O   UNL     1       6.649  -0.375   0.000  0.00  0.00    -0.246 OA
ENDROOT
BRANCH   4   3
ATOM      1  C   UNL     1       2.900   0.924   0.000  0.00  0.00    -0.023 C 
ATOM      2  C   UNL     1       2.150   2.223   0.000  0.00  0.00    +0.035 C 
ATOM      3  C   UNL     1       4.399   0.924   0.000  0.00  0.00    +0.087 C 
ENDBRANCH   4   3
BRANCH   4   5
ATOM      5  O   UNL     1       4.399  -1.674   0.000  0.00  0.00    -0.478 OA
ATOM      6  H   UNL     1       3.463  -1.674   0.000  0.00  0.00    +0.295 HD
ENDBRANCH   4   5
TORSDOF 2