REMARK  Name = NSC 8973
REMARK  6 active torsions:
REMARK  status: ('A' for Active; 'I' for Inactive)
REMARK    1  A    between atoms: C_1  and  C_2
REMARK    2  A    between atoms: C_1  and  C_3
REMARK    3  A    between atoms: C_3  and  O_4
REMARK    4  A    between atoms: C_8  and  C_9
REMARK    5  A    between atoms: C_9  and  C_10
REMARK    6  A    between atoms: C_9  and  C_11
REMARK                            x       y       z     vdW  Elec       q    Type
REMARK                         _______ _______ _______ _____ _____    ______ ____
ROOT
ATOM      1  C   UNL     1       2.457  -3.399   0.000  0.00  0.00    +0.065 C 
ATOM      2  C   UNL     1       3.949  -3.242   0.000  0.00  0.00    +0.023 C 
ATOM      7  C   UNL     1       0.965  -3.242   0.000  0.00  0.00    +0.018 C 
ATOM      8  C   UNL     1       0.355  -4.612   0.000  0.00  0.00    +0.005 C 
ATOM      9  C   UNL     1       1.470  -5.616   0.000  0.00  0.00    -0.007 C 
ATOM     13  C   UNL     1       2.769  -4.866   0.000  0.00  0.00    +0.021 C 
ENDROOT
BRANCH   9  10
ATOM     10  C   UNL     1       1.313  -7.108   0.000  0.00  0.00    -0.014 C 
ATOM     11  C   UNL     1      -0.057  -7.718   0.000  0.00  0.00    +0.007 C 
ATOM     12  C   UNL     1       2.527  -7.990   0.000  0.00  0.00    +0.007 C 
ENDBRANCH   9  10
BRANCH   1   3
ATOM      3  C   UNL     1       2.457  -1.899   0.000  0.00  0.00    +0.311 C 
ATOM      6  O   UNL     1       1.158  -1.149   0.000  0.00  0.00    -0.250 OA
BRANCH   3   4
ATOM      4  O   UNL     1       3.756  -1.149   0.000  0.00  0.00    -0.480 OA
ATOM      5  H   UNL     1       4.568  -1.617   0.000  0.00  0.00    +0.295 HD
ENDBRANCH   3   4
ENDBRANCH   1   3
TORSDOF 3