REMARK  Name = NSC 83439
REMARK  6 active torsions:
REMARK  status: ('A' for Active; 'I' for Inactive)
REMARK    1  A    between atoms: C_3  and  C_4
REMARK    2  A    between atoms: C_3  and  C_5
REMARK    3  A    between atoms: C_5  and  O_6
REMARK    4  A    between atoms: C_13  and  C_14
REMARK    5  A    between atoms: C_14  and  O_15
REMARK    6  A    between atoms: C_22  and  C_23
REMARK                            x       y       z     vdW  Elec       q    Type
REMARK                         _______ _______ _______ _____ _____    ______ ____
ROOT
ATOM      1  O   UNL     1      -9.806  -8.028   0.000  0.00  0.00    -0.297 OA
ATOM      2  C   UNL     1      -8.507  -7.278   0.000  0.00  0.00    +0.142 C 
ATOM      3  C   UNL     1      -7.208  -8.028   0.000  0.00  0.00    +0.052 C 
ATOM      4  C   UNL     1      -6.458  -9.327   0.000  0.00  0.00    +0.022 C 
ATOM      8  C   UNL     1      -5.909  -7.278   0.000  0.00  0.00    +0.010 C 
ATOM      9  C   UNL     1      -4.610  -8.028   0.000  0.00  0.00    +0.005 C 
ATOM     10  C   UNL     1      -3.311  -7.278   0.000  0.00  0.00    +0.007 C 
ATOM     11  C   UNL     1      -3.311  -5.778   0.000  0.00  0.00    -0.025 C 
ATOM     12  C   UNL     1      -2.012  -5.028   0.000  0.00  0.00    +0.011 C 
ATOM     13  C   UNL     1      -2.012  -3.528   0.000  0.00  0.00    +0.003 C 
ATOM     14  C   UNL     1      -1.209  -4.564   0.000  0.00  0.00    +0.101 C 
ATOM     19  C   UNL     1      -3.311  -2.778   0.000  0.00  0.00    +0.004 C 
ATOM     20  C   UNL     1      -4.610  -3.528   0.000  0.00  0.00    +0.005 C 
ATOM     21  C   UNL     1      -1.819  -5.934   0.000  0.00  0.00    +0.022 C 
ATOM     22  C   UNL     1      -4.610  -5.028   0.000  0.00  0.00    +0.002 C 
ATOM     23  C   UNL     1      -5.909  -5.778   0.000  0.00  0.00    -0.025 C 
ATOM     24  C   UNL     1      -5.909  -4.278   0.000  0.00  0.00    +0.012 C 
ATOM     25  C   UNL     1      -7.208  -5.028   0.000  0.00  0.00    +0.015 C 
ATOM     26  C   UNL     1      -8.507  -5.778   0.000  0.00  0.00    +0.075 C 
ENDROOT
BRANCH  14  15
ATOM     15  C   UNL     1       0.280  -4.385   0.000  0.00  0.00    +0.308 C 
ATOM     18  O   UNL     1       1.180  -5.584   0.000  0.00  0.00    -0.251 OA
BRANCH  15  16
ATOM     16  O   UNL     1       0.869  -3.005   0.000  0.00  0.00    -0.480 OA
ATOM     17  H   UNL     1       1.799  -2.893   0.000  0.00  0.00    +0.295 HD
ENDBRANCH  15  16
ENDBRANCH  14  15
BRANCH   3   5
ATOM      5  C   UNL     1      -8.172  -9.177   0.000  0.00  0.00    +0.170 C 
BRANCH   5   6
ATOM      6  O   UNL     1      -9.650  -8.916   0.000  0.00  0.00    -0.394 OA
ATOM      7  H   UNL     1      -9.981  -8.005   0.000  0.00  0.00    +0.209 HD
ENDBRANCH   5   6
ENDBRANCH   3   5
TORSDOF 4