REMARK  Name = NSC 785177#1
REMARK  4 active torsions:
REMARK  status: ('A' for Active; 'I' for Inactive)
REMARK    1  A    between atoms: C_1  and  O_18
REMARK    2  A    between atoms: N_14  and  C_15
REMARK    3  A    between atoms: O_18  and  C_19
REMARK    4  A    between atoms: C_20  and  O_21
REMARK                            x       y       z     vdW  Elec       q    Type
REMARK                         _______ _______ _______ _____ _____    ______ ____
ROOT
ATOM      1  C   UNL     1       2.044  -4.503   0.000  0.00  0.00    +0.162 A 
ATOM      2  C   UNL     1       3.344  -3.754   0.000  0.00  0.00    +0.053 A 
ATOM      3  C   UNL     1       4.642  -4.506   0.000  0.00  0.00    -0.037 A 
ATOM      4  C   UNL     1       4.640  -6.006   0.000  0.00  0.00    -0.015 A 
ATOM      5  C   UNL     1       3.340  -6.754   0.000  0.00  0.00    +0.032 A 
ATOM      6  C   UNL     1       3.338  -8.254   0.000  0.00  0.00    -0.011 A 
ATOM      7  C   UNL     1       2.038  -9.003   0.000  0.00  0.00    +0.009 A 
ATOM      8  C   UNL     1       2.036 -10.503   0.000  0.00  0.00    +0.001 A 
ATOM      9  C   UNL     1       3.334 -11.254   0.000  0.00  0.00    +0.000 A 
ATOM     10  C   UNL     1       4.634 -10.506   0.000  0.00  0.00    +0.004 A 
ATOM     11  C   UNL     1       4.636  -9.006   0.000  0.00  0.00    -0.038 A 
ATOM     12  C   UNL     1       5.936  -8.257   0.000  0.00  0.00    +0.059 C 
ATOM     13  C   UNL     1       5.938  -6.757   0.000  0.00  0.00    +0.092 C 
ATOM     14  N   UNL     1       7.238  -6.009   0.000  0.00  0.00    -0.298 NA
ATOM     15  C   UNL     1       8.536  -6.761   0.000  0.00  0.00    +0.105 C 
ATOM     16  C   UNL     1       7.240  -4.509   0.000  0.00  0.00    +0.089 C 
ATOM     17  C   UNL     1       5.942  -3.757   0.000  0.00  0.00    +0.051 C 
ATOM     20  C   UNL     1       2.042  -6.003   0.000  0.00  0.00    +0.167 A 
ENDROOT
BRANCH   1  18
ATOM     18  O   UNL     1       0.746  -3.751   0.000  0.00  0.00    -0.491 OA
ATOM     19  C   UNL     1       0.747  -2.251   0.000  0.00  0.00    +0.277 C 
ENDBRANCH   1  18
BRANCH  20  21
ATOM     21  O   UNL     1       0.742  -6.751   0.000  0.00  0.00    -0.503 OA
ATOM     22  H   UNL     1      -0.069  -6.282   0.000  0.00  0.00    +0.292 HD
ENDBRANCH  20  21
TORSDOF 2