REMARK  Name = NSC 83433
REMARK  4 active torsions:
REMARK  status: ('A' for Active; 'I' for Inactive)
REMARK    1  A    between atoms: C_12  and  C_13
REMARK    2  A    between atoms: C_12  and  C_14
REMARK    3  A    between atoms: C_17  and  C_18
REMARK    4  A    between atoms: C_20  and  O_21
REMARK                            x       y       z     vdW  Elec       q    Type
REMARK                         _______ _______ _______ _____ _____    ______ ____
ROOT
ATOM      1  O   UNL     1      -2.920  -1.062   0.000  0.00  0.00    -0.245 OA
ATOM      2  C   UNL     1      -2.272  -0.688   0.000  0.00  0.00    +0.337 A 
ATOM      3  C   UNL     1      -2.272   0.048   0.000  0.00  0.00    +0.093 A 
ATOM      4  C   UNL     1      -1.635   0.415   0.000  0.00  0.00    +0.022 A 
ATOM      5  C   UNL     1      -1.002   0.030   0.000  0.00  0.00    +0.060 A 
ATOM      6  C   UNL     1      -1.002  -0.705   0.000  0.00  0.00    +0.146 A 
ATOM      7  C   UNL     1      -0.365  -1.073   0.000  0.00  0.00    +0.093 A 
ATOM      8  C   UNL     1       0.272  -0.705   0.000  0.00  0.00    +0.132 A 
ATOM      9  C   UNL     1       0.272   0.030   0.000  0.00  0.00    +0.043 A 
ATOM     10  C   UNL     1       0.909   0.398   0.000  0.00  0.00    +0.065 C 
ATOM     11  C   UNL     1       1.539   0.054   0.000  0.00  0.00    +0.043 C 
ATOM     12  C   UNL     1       1.539  -0.682   0.000  0.00  0.00    +0.109 C 
ATOM     13  C   UNL     1       2.282  -0.881   0.000  0.00  0.00    +0.055 C 
ATOM     14  C   UNL     1       1.936  -1.368   0.000  0.00  0.00    +0.055 C 
ATOM     15  C   UNL     1       0.905  -0.312   0.000  0.00  0.00    +0.012 C 
ATOM     16  C   UNL     1       0.272   0.784   0.000  0.00  0.00    +0.051 C 
ATOM     17  C   UNL     1       0.272   1.502   0.000  0.00  0.00    +0.134 C 
ATOM     18  C   UNL     1       0.272   2.154   0.000  0.00  0.00    +0.058 C 
ATOM     19  O   UNL     1      -0.365   1.134   0.000  0.00  0.00    -0.482 OA
ATOM     20  C   UNL     1       0.909   1.134   0.000  0.00  0.00    +0.166 C 
ATOM     23  O   UNL     1       0.902  -1.050   0.000  0.00  0.00    -0.485 OA
ATOM     24  C   UNL     1      -0.365   0.398   0.000  0.00  0.00    +0.139 A 
ATOM     25  O   UNL     1      -1.635  -1.056   0.000  0.00  0.00    -0.422 OA
ENDROOT
BRANCH  20  21
ATOM     21  O   UNL     1       1.550   1.504   0.000  0.00  0.00    -0.387 OA
ATOM     22  H   UNL     1       2.390   1.019   0.000  0.00  0.00    +0.210 HD
ENDBRANCH  20  21
TORSDOF 1