REMARK  Name = NSC 785188
REMARK  4 active torsions:
REMARK  status: ('A' for Active; 'I' for Inactive)
REMARK    1  A    between atoms: C_1  and  O_2
REMARK    2  A    between atoms: O_2  and  C_3
REMARK    3  A    between atoms: C_4  and  O_5
REMARK    4  A    between atoms: N_11  and  C_21
REMARK                            x       y       z     vdW  Elec       q    Type
REMARK                         _______ _______ _______ _____ _____    ______ ____
ROOT
ATOM      1  C   UNL     1     -10.677  -1.978   0.000  0.00  0.00    +0.162 A 
ATOM      4  C   UNL     1      -9.377  -1.230   0.000  0.00  0.00    +0.167 A 
ATOM      7  C   UNL     1      -8.079  -1.981   0.000  0.00  0.00    +0.034 A 
ATOM      8  C   UNL     1      -8.081  -3.481   0.000  0.00  0.00    -0.034 A 
ATOM      9  C   UNL     1      -6.783  -4.232   0.000  0.00  0.00    +0.059 C 
ATOM     10  C   UNL     1      -5.483  -3.484   0.000  0.00  0.00    +0.092 C 
ATOM     11  N   UNL     1      -4.185  -4.235   0.000  0.00  0.00    -0.298 NA
ATOM     12  C   UNL     1      -2.885  -3.487   0.000  0.00  0.00    +0.089 C 
ATOM     13  C   UNL     1      -2.883  -1.987   0.000  0.00  0.00    +0.051 C 
ATOM     14  C   UNL     1      -4.181  -1.235   0.000  0.00  0.00    -0.037 A 
ATOM     15  C   UNL     1      -4.180   0.265   0.000  0.00  0.00    +0.053 A 
ATOM     16  C   UNL     1      -5.478   1.016   0.000  0.00  0.00    +0.167 A 
ATOM     17  O   UNL     1      -5.788   2.484   0.000  0.00  0.00    -0.453 OA
ATOM     18  C   UNL     1      -7.280   2.642   0.000  0.00  0.00    +0.466 C 
ATOM     19  O   UNL     1      -7.891   1.272   0.000  0.00  0.00    -0.452 OA
ATOM     20  C   UNL     1      -6.778   0.268   0.000  0.00  0.00    +0.174 A 
ATOM     21  C   UNL     1      -4.186  -5.735   0.000  0.00  0.00    +0.105 C 
ATOM     22  C   UNL     1      -5.481  -1.984   0.000  0.00  0.00    -0.015 A 
ATOM     23  C   UNL     1      -9.381  -4.230   0.000  0.00  0.00    +0.008 A 
ATOM     24  C   UNL     1      -6.779  -1.232   0.000  0.00  0.00    +0.036 A 
ATOM     25  C   UNL     1     -10.679  -3.478   0.000  0.00  0.00    +0.050 A 
ENDROOT
BRANCH   1   2
ATOM      2  O   UNL     1     -11.976  -1.227   0.000  0.00  0.00    -0.491 OA
ATOM      3  C   UNL     1     -11.974   0.273   0.000  0.00  0.00    +0.277 C 
ENDBRANCH   1   2
BRANCH   4   5
ATOM      5  O   UNL     1      -9.376   0.270   0.000  0.00  0.00    -0.503 OA
ATOM      6  H   UNL     1      -8.564   0.738   0.000  0.00  0.00    +0.292 HD
ENDBRANCH   4   5
TORSDOF 2