REMARK  Name = NSC 85236
REMARK  3 active torsions:
REMARK  status: ('A' for Active; 'I' for Inactive)
REMARK    1  A    between atoms: C_3  and  C_4
REMARK    2  A    between atoms: C_5  and  O_6
REMARK    3  A    between atoms: C_15  and  C_16
REMARK                            x       y       z     vdW  Elec       q    Type
REMARK                         _______ _______ _______ _____ _____    ______ ____
ROOT
ATOM      1  O   UNL     1      -2.810  -2.839   0.000  0.00  0.00    -0.292 OA
ATOM      2  C   UNL     1      -2.750  -1.340   0.000  0.00  0.00    +0.165 C 
ATOM      3  C   UNL     1      -1.502  -0.508   0.000  0.00  0.00    +0.063 C 
ATOM      4  C   UNL     1      -1.360  -2.001   0.000  0.00  0.00    +0.023 C 
ATOM      5  C   UNL     1      -0.120  -1.091   0.000  0.00  0.00    +0.140 C 
ATOM      8  C   UNL     1       1.197  -0.373   0.000  0.00  0.00    +0.096 C 
ATOM      9  C   UNL     1       2.522  -1.078   0.000  0.00  0.00    +0.039 C 
ATOM     10  C   UNL     1       2.730  -2.563   0.000  0.00  0.00    +0.020 C 
ATOM     11  C   UNL     1       3.601  -0.036   0.000  0.00  0.00    +0.335 C 
ATOM     12  O   UNL     1       5.078  -0.296   0.000  0.00  0.00    -0.245 OA
ATOM     13  O   UNL     1       2.943   1.313   0.000  0.00  0.00    -0.457 OA
ATOM     14  C   UNL     1       1.458   1.104   0.000  0.00  0.00    +0.187 C 
ATOM     15  C   UNL     1       0.466   2.229   0.000  0.00  0.00    +0.049 C 
ATOM     16  C   UNL     1      -1.033   2.154   0.000  0.00  0.00    -0.003 C 
ATOM     17  C   UNL     1      -1.750   3.471   0.000  0.00  0.00    +0.008 C 
ATOM     18  C   UNL     1      -1.908   0.936   0.000  0.00  0.00    +0.031 C 
ATOM     19  C   UNL     1      -3.407   0.996   0.000  0.00  0.00    -0.019 C 
ATOM     20  C   UNL     1      -3.927  -0.411   0.000  0.00  0.00    +0.043 C 
ENDROOT
BRANCH   5   6
ATOM      6  O   UNL     1      -0.045  -2.589   0.000  0.00  0.00    -0.390 OA
ATOM      7  H   UNL     1      -0.860  -3.115   0.000  0.00  0.00    +0.210 HD
ENDBRANCH   5   6
TORSDOF 1