REMARK  Name = NSC 79404
REMARK  8 active torsions:
REMARK  status: ('A' for Active; 'I' for Inactive)
REMARK    1  A    between atoms: C_4  and  C_5
REMARK    2  A    between atoms: C_5  and  O_6
REMARK    3  A    between atoms: C_10  and  C_11
REMARK    4  A    between atoms: C_13  and  O_14
REMARK    5  A    between atoms: C_15  and  O_16
REMARK    6  A    between atoms: C_22  and  C_23
REMARK    7  A    between atoms: C_24  and  C_25
REMARK    8  A    between atoms: C_26  and  O_27
REMARK                            x       y       z     vdW  Elec       q    Type
REMARK                         _______ _______ _______ _____ _____    ______ ____
ROOT
ATOM      1  O   UNL     1       4.647   7.500   0.000  0.00  0.00    -0.294 OA
ATOM      2  C   UNL     1       5.946   6.750   0.000  0.00  0.00    +0.166 C 
ATOM      3  C   UNL     1       5.946   5.250   0.000  0.00  0.00    +0.079 C 
ATOM      4  C   UNL     1       7.245   4.500   0.000  0.00  0.00    +0.045 C 
ATOM      8  C   UNL     1       7.245   3.000   0.000  0.00  0.00    +0.186 C 
ATOM      9  C   UNL     1       5.946   2.250   0.000  0.00  0.00    +0.053 C 
ATOM     10  C   UNL     1       4.647   3.000   0.000  0.00  0.00    +0.027 C 
ATOM     11  C   UNL     1       3.348   2.250   0.000  0.00  0.00    -0.070 C 
ATOM     12  C   UNL     1       3.348   0.750   0.000  0.00  0.00    +0.039 C 
ATOM     13  C   UNL     1       2.049   3.000   0.000  0.00  0.00    +0.006 C 
ATOM     14  C   UNL     1       2.049   4.500   0.000  0.00  0.00    +0.166 C 
ATOM     17  C   UNL     1       3.348   5.250   0.000  0.00  0.00    +0.154 C 
ATOM     20  O   UNL     1       8.544   2.250   0.000  0.00  0.00    -0.461 OA
ATOM     21  C   UNL     1       9.843   3.000   0.000  0.00  0.00    +0.308 C 
ATOM     22  C   UNL     1       9.843   4.500   0.000  0.00  0.00    +0.125 C 
ATOM     23  O   UNL     1      11.142   2.250   0.000  0.00  0.00    -0.251 OA
ATOM     24  C   UNL     1       8.544   5.250   0.000  0.00  0.00    +0.018 C 
ATOM     25  C   UNL     1       8.544   6.750   0.000  0.00  0.00    +0.026 C 
ATOM     26  C   UNL     1       9.843   7.500   0.000  0.00  0.00    +0.011 C 
ATOM     27  C   UNL     1       4.647   4.500   0.000  0.00  0.00    +0.013 C 
ATOM     28  C   UNL     1       4.647   6.000   0.000  0.00  0.00    +0.015 C 
ATOM     29  C   UNL     1       7.245   7.500   0.000  0.00  0.00    +0.184 C 
ENDROOT
BRANCH  14  15
ATOM     15  O   UNL     1       0.750   5.250   0.000  0.00  0.00    -0.385 OA
ATOM     16  H   UNL     1       0.750   6.220   0.000  0.00  0.00    +0.210 HD
ENDBRANCH  14  15
BRANCH  17  18
ATOM     18  O   UNL     1       3.348   6.750   0.000  0.00  0.00    -0.388 OA
ATOM     19  H   UNL     1       4.188   7.235   0.000  0.00  0.00    +0.210 HD
ENDBRANCH  17  18
BRANCH  29  30
ATOM     30  O   UNL     1       7.245   9.000   0.000  0.00  0.00    -0.384 OA
ATOM     31  H   UNL     1       8.085   9.485   0.000  0.00  0.00    +0.210 HD
ENDBRANCH  29  30
BRANCH   4   5
ATOM      5  C   UNL     1       5.946   3.750   0.000  0.00  0.00    +0.167 C 
BRANCH   5   6
ATOM      6  O   UNL     1       5.946   2.250   0.000  0.00  0.00    -0.394 OA
ATOM      7  H   UNL     1       5.106   1.765   0.000  0.00  0.00    +0.209 HD
ENDBRANCH   5   6
ENDBRANCH   4   5
TORSDOF 5