REMARK  Name = NSC 785184
REMARK  15 active torsions:
REMARK  status: ('A' for Active; 'I' for Inactive)
REMARK    1  A    between atoms: C_1  and  C_2
REMARK    2  A    between atoms: C_2  and  C_3
REMARK    3  A    between atoms: N_4  and  C_5
REMARK    4  A    between atoms: C_10  and  O_11
REMARK    5  A    between atoms: O_11  and  C_12
REMARK    6  A    between atoms: C_13  and  O_14
REMARK    7  A    between atoms: C_18  and  O_19
REMARK    8  A    between atoms: O_19  and  C_20
REMARK    9  A    between atoms: C_23  and  C_24
REMARK   10  A    between atoms: C_24  and  C_25
REMARK   11  A    between atoms: N_26  and  C_27
REMARK   12  A    between atoms: C_32  and  O_33
REMARK   13  A    between atoms: O_33  and  C_34
REMARK   14  A    between atoms: C_35  and  O_36
REMARK   15  A    between atoms: C_41  and  O_42
REMARK                            x       y       z     vdW  Elec       q    Type
REMARK                         _______ _______ _______ _____ _____    ______ ____
ROOT
ATOM      1  C   UNL     1     -17.637  -5.250   0.000  0.00  0.00    -0.042 A 
ATOM     18  C   UNL     1     -16.339  -4.500   0.000  0.00  0.00    +0.053 A 
ATOM     19  C   UNL     1     -15.039  -5.250   0.000  0.00  0.00    +0.170 A 
ATOM     43  C   UNL     1     -15.039  -6.750   0.000  0.00  0.00    +0.159 A 
ATOM     46  C   UNL     1     -16.338  -7.500   0.000  0.00  0.00    +0.049 A 
ATOM     47  C   UNL     1     -17.637  -6.750   0.000  0.00  0.00    +0.007 A 
ENDROOT
BRANCH  43  44
ATOM     44  O   UNL     1     -13.740  -7.500   0.000  0.00  0.00    -0.503 OA
ATOM     45  H   UNL     1     -13.740  -8.437   0.000  0.00  0.00    +0.292 HD
ENDBRANCH  43  44
BRANCH   1   2
ATOM      2  C   UNL     1     -18.936  -4.500   0.000  0.00  0.00    +0.059 C 
BRANCH   2   3
ATOM      3  C   UNL     1     -20.236  -5.250   0.000  0.00  0.00    +0.091 C 
ATOM      4  N   UNL     1     -20.236  -6.750   0.000  0.00  0.00    -0.298 NA
ATOM      5  C   UNL     1     -18.936  -7.500   0.000  0.00  0.00    +0.105 C 
ATOM      6  C   UNL     1     -21.535  -7.500   0.000  0.00  0.00    +0.089 C 
ATOM      7  C   UNL     1     -22.834  -6.750   0.000  0.00  0.00    +0.051 C 
ATOM      8  C   UNL     1     -22.834  -5.250   0.000  0.00  0.00    -0.038 A 
ATOM      9  C   UNL     1     -24.133  -4.500   0.000  0.00  0.00    +0.053 A 
ATOM     10  C   UNL     1     -24.133  -3.000   0.000  0.00  0.00    +0.162 A 
ATOM     13  C   UNL     1     -22.834  -2.250   0.000  0.00  0.00    +0.159 A 
ATOM     16  C   UNL     1     -21.535  -3.000   0.000  0.00  0.00    +0.054 A 
ATOM     17  C   UNL     1     -21.535  -4.500   0.000  0.00  0.00    -0.023 A 
BRANCH  10  11
ATOM     11  O   UNL     1     -25.432  -2.250   0.000  0.00  0.00    -0.491 OA
ATOM     12  C   UNL     1     -26.731  -3.000   0.000  0.00  0.00    +0.277 C 
ENDBRANCH  10  11
BRANCH  13  14
ATOM     14  O   UNL     1     -22.834  -0.750   0.000  0.00  0.00    -0.503 OA
ATOM     15  H   UNL     1     -22.022  -0.281   0.000  0.00  0.00    +0.292 HD
ENDBRANCH  13  14
ENDBRANCH   2   3
ENDBRANCH   1   2
BRANCH  19  20
ATOM     20  O   UNL     1     -13.740  -4.500   0.000  0.00  0.00    -0.452 OA
BRANCH  20  21
ATOM     21  C   UNL     1     -12.441  -5.250   0.000  0.00  0.00    +0.129 A 
ATOM     22  C   UNL     1     -11.142  -4.500   0.000  0.00  0.00    +0.046 A 
ATOM     23  C   UNL     1      -9.843  -5.250   0.000  0.00  0.00    +0.007 A 
ATOM     24  C   UNL     1      -9.843  -6.750   0.000  0.00  0.00    -0.045 A 
ATOM     41  C   UNL     1     -11.142  -7.500   0.000  0.00  0.00    +0.007 A 
ATOM     42  C   UNL     1     -12.441  -6.750   0.000  0.00  0.00    +0.046 A 
BRANCH  24  25
ATOM     25  C   UNL     1      -8.544  -7.500   0.000  0.00  0.00    +0.058 C 
BRANCH  25  26
ATOM     26  C   UNL     1      -7.245  -6.750   0.000  0.00  0.00    +0.091 C 
ATOM     27  N   UNL     1      -7.245  -5.250   0.000  0.00  0.00    -0.298 NA
ATOM     28  C   UNL     1      -8.544  -4.500   0.000  0.00  0.00    +0.105 C 
ATOM     29  C   UNL     1      -5.946  -4.500   0.000  0.00  0.00    +0.089 C 
ATOM     30  C   UNL     1      -4.647  -5.250   0.000  0.00  0.00    +0.051 C 
ATOM     31  C   UNL     1      -4.647  -6.750   0.000  0.00  0.00    -0.038 A 
ATOM     32  C   UNL     1      -3.348  -7.500   0.000  0.00  0.00    +0.053 A 
ATOM     33  C   UNL     1      -3.348  -9.000   0.000  0.00  0.00    +0.162 A 
ATOM     36  C   UNL     1      -4.647  -9.750   0.000  0.00  0.00    +0.159 A 
ATOM     39  C   UNL     1      -5.946  -9.000   0.000  0.00  0.00    +0.054 A 
ATOM     40  C   UNL     1      -5.946  -7.500   0.000  0.00  0.00    -0.023 A 
BRANCH  33  34
ATOM     34  O   UNL     1      -2.049  -9.750   0.000  0.00  0.00    -0.491 OA
ATOM     35  C   UNL     1      -0.750  -9.000   0.000  0.00  0.00    +0.277 C 
ENDBRANCH  33  34
BRANCH  36  37
ATOM     37  O   UNL     1      -4.647 -11.250   0.000  0.00  0.00    -0.503 OA
ATOM     38  H   UNL     1      -5.459 -11.719   0.000  0.00  0.00    +0.292 HD
ENDBRANCH  36  37
ENDBRANCH  25  26
ENDBRANCH  24  25
ENDBRANCH  20  21
ENDBRANCH  19  20
TORSDOF 11