REMARK  Name = NSC 89671
REMARK  3 active torsions:
REMARK  status: ('A' for Active; 'I' for Inactive)
REMARK    1  A    between atoms: C_1  and  O_21
REMARK    2  A    between atoms: C_5  and  O_6
REMARK    3  A    between atoms: C_13  and  C_14
REMARK                            x       y       z     vdW  Elec       q    Type
REMARK                         _______ _______ _______ _____ _____    ______ ____
ROOT
ATOM      1  C   UNL     1      -6.799  -4.701   0.000  0.00  0.00    +0.141 C 
ATOM      2  C   UNL     1      -6.799  -6.201   0.000  0.00  0.00    +0.031 C 
ATOM      3  C   UNL     1      -5.500  -6.951   0.000  0.00  0.00    +0.020 C 
ATOM      4  C   UNL     1      -5.812  -8.418   0.000  0.00  0.00    +0.039 C 
ATOM      5  C   UNL     1      -7.304  -8.575   0.000  0.00  0.00    +0.115 C 
ATOM      8  C   UNL     1      -4.201  -6.201   0.000  0.00  0.00    -0.027 C 
ATOM      9  C   UNL     1      -2.902  -6.951   0.000  0.00  0.00    -0.031 C 
ATOM     10  C   UNL     1      -1.603  -6.201   0.000  0.00  0.00    +0.027 C 
ATOM     11  C   UNL     1      -0.176  -6.664   0.000  0.00  0.00    +0.008 C 
ATOM     12  C   UNL     1       0.705  -5.451   0.000  0.00  0.00    +0.045 C 
ATOM     13  C   UNL     1      -0.176  -4.237   0.000  0.00  0.00    +0.174 C 
ATOM     14  C   UNL     1       0.287  -2.811   0.000  0.00  0.00    +0.052 C 
ATOM     15  O   UNL     1      -1.603  -4.701   0.000  0.00  0.00    -0.459 OA
ATOM     16  C   UNL     1      -2.902  -3.951   0.000  0.00  0.00    +0.332 C 
ATOM     17  O   UNL     1      -2.902  -2.451   0.000  0.00  0.00    -0.246 OA
ATOM     18  C   UNL     1      -4.201  -4.701   0.000  0.00  0.00    +0.090 C 
ATOM     19  C   UNL     1      -7.914  -7.204   0.000  0.00  0.00    +0.038 C 
ATOM     22  C   UNL     1      -5.500  -3.951   0.000  0.00  0.00    +0.011 C 
ENDROOT
BRANCH   5   6
ATOM      6  O   UNL     1      -8.054  -9.874   0.000  0.00  0.00    -0.392 OA
ATOM      7  H   UNL     1      -9.024  -9.874   0.000  0.00  0.00    +0.210 HD
ENDBRANCH   5   6
BRANCH   1  20
ATOM     20  O   UNL     1      -8.098  -3.951   0.000  0.00  0.00    -0.387 OA
ATOM     21  H   UNL     1      -8.098  -2.981   0.000  0.00  0.00    +0.210 HD
ENDBRANCH   1  20
TORSDOF 2