REMARK  Name = NSC 785172#1
REMARK  8 active torsions:
REMARK  status: ('A' for Active; 'I' for Inactive)
REMARK    1  A    between atoms: C_1  and  C_2
REMARK    2  A    between atoms: C_1  and  C_17
REMARK    3  A    between atoms: N_3  and  C_15
REMARK    4  A    between atoms: C_8  and  O_9
REMARK    5  A    between atoms: O_9  and  C_10
REMARK    6  A    between atoms: C_11  and  O_12
REMARK    7  A    between atoms: O_12  and  C_13
REMARK    8  A    between atoms: C_20  and  O_21
REMARK                            x       y       z     vdW  Elec       q    Type
REMARK                         _______ _______ _______ _____ _____    ______ ____
ROOT
ATOM      2  C   UNL     1      -4.821  -6.649   0.000  0.00  0.00    +0.091 C 
ATOM      3  N   UNL     1      -3.522  -7.399   0.000  0.00  0.00    -0.298 NA
ATOM      4  C   UNL     1      -3.522  -8.899   0.000  0.00  0.00    +0.089 C 
ATOM      5  C   UNL     1      -4.821  -9.649   0.000  0.00  0.00    +0.051 C 
ATOM      6  C   UNL     1      -6.120  -8.899   0.000  0.00  0.00    -0.038 A 
ATOM      7  C   UNL     1      -7.419  -9.649   0.000  0.00  0.00    +0.053 A 
ATOM      8  C   UNL     1      -8.718  -8.899   0.000  0.00  0.00    +0.162 A 
ATOM     11  C   UNL     1      -8.718  -7.399   0.000  0.00  0.00    +0.162 A 
ATOM     14  C   UNL     1      -7.419  -6.649   0.000  0.00  0.00    +0.054 A 
ATOM     15  C   UNL     1      -2.223  -6.649   0.000  0.00  0.00    +0.105 C 
ATOM     16  C   UNL     1      -6.120  -7.399   0.000  0.00  0.00    -0.023 A 
ENDROOT
BRANCH   8   9
ATOM      9  O   UNL     1     -10.017  -9.650   0.000  0.00  0.00    -0.491 OA
ATOM     10  C   UNL     1     -11.316  -8.900   0.000  0.00  0.00    +0.277 C 
ENDBRANCH   8   9
BRANCH  11  12
ATOM     12  O   UNL     1     -10.017  -6.650   0.000  0.00  0.00    -0.491 OA
ATOM     13  C   UNL     1     -11.316  -7.400   0.000  0.00  0.00    +0.277 C 
ENDBRANCH  11  12
BRANCH   2   1
ATOM      1  C   UNL     1      -4.821  -5.149   0.000  0.00  0.00    +0.058 C 
BRANCH   1  17
ATOM     17  C   UNL     1      -3.522  -4.399   0.000  0.00  0.00    -0.045 A 
ATOM     18  C   UNL     1      -2.223  -5.149   0.000  0.00  0.00    +0.007 A 
ATOM     19  C   UNL     1      -0.924  -4.399   0.000  0.00  0.00    +0.045 A 
ATOM     20  C   UNL     1      -0.924  -2.900   0.000  0.00  0.00    +0.117 A 
ATOM     23  C   UNL     1      -2.223  -2.150   0.000  0.00  0.00    +0.045 A 
ATOM     24  C   UNL     1      -3.522  -2.900   0.000  0.00  0.00    +0.007 A 
BRANCH  20  21
ATOM     21  O   UNL     1       0.375  -2.150   0.000  0.00  0.00    -0.507 OA
ATOM     22  H   UNL     1       1.186  -2.618   0.000  0.00  0.00    +0.292 HD
ENDBRANCH  20  21
ENDBRANCH   1  17
ENDBRANCH   2   1
TORSDOF 5