REMARK  Name = NSC 82151#1
REMARK  12 active torsions:
REMARK  status: ('A' for Active; 'I' for Inactive)
REMARK    1  A    between atoms: C_4  and  O_5
REMARK    2  A    between atoms: O_5  and  C_6
REMARK    3  A    between atoms: C_13  and  O_14
REMARK    4  A    between atoms: C_17  and  O_18
REMARK    5  A    between atoms: C_17  and  C_19
REMARK    6  A    between atoms: C_19  and  C_20
REMARK    7  A    between atoms: C_23  and  O_24
REMARK    8  A    between atoms: O_24  and  C_25
REMARK    9  A    between atoms: C_27  and  N_28
REMARK   10  A    between atoms: C_29  and  O_30
REMARK   11  A    between atoms: C_31  and  C_32
REMARK   12  A    between atoms: C_35  and  O_36
REMARK                            x       y       z     vdW  Elec       q    Type
REMARK                         _______ _______ _______ _____ _____    ______ ____
ROOT
ATOM      1  O   UNL     1     -11.142  -7.059   0.000  0.00  0.00    -0.286 OA
ATOM      2  C   UNL     1     -11.142  -5.559   0.000  0.00  0.00    +0.202 C 
ATOM      3  C   UNL     1     -12.441  -4.809   0.000  0.00  0.00    +0.075 A 
ATOM      4  C   UNL     1     -13.740  -5.559   0.000  0.00  0.00    +0.132 A 
ATOM      7  C   UNL     1     -15.039  -4.809   0.000  0.00  0.00    +0.046 A 
ATOM      8  C   UNL     1     -15.039  -3.309   0.000  0.00  0.00    +0.004 A 
ATOM      9  C   UNL     1     -13.740  -2.559   0.000  0.00  0.00    +0.012 A 
ATOM     10  C   UNL     1     -12.441  -3.309   0.000  0.00  0.00    +0.037 A 
ATOM     11  C   UNL     1     -11.142  -2.559   0.000  0.00  0.00    +0.198 C 
ATOM     12  C   UNL     1      -9.843  -3.309   0.000  0.00  0.00    +0.078 A 
ATOM     13  C   UNL     1      -8.544  -2.559   0.000  0.00  0.00    +0.132 A 
ATOM     16  C   UNL     1      -7.245  -3.309   0.000  0.00  0.00    +0.007 A 
ATOM     17  C   UNL     1      -5.946  -2.559   0.000  0.00  0.00    +0.082 C 
ATOM     18  C   UNL     1      -4.647  -3.309   0.000  0.00  0.00    +0.130 C 
ATOM     24  C   UNL     1      -4.647  -4.809   0.000  0.00  0.00    +0.079 C 
ATOM     25  C   UNL     1      -5.946  -5.559   0.000  0.00  0.00    +0.158 C 
ATOM     39  C   UNL     1      -7.245  -4.809   0.000  0.00  0.00    +0.030 A 
ATOM     40  C   UNL     1      -8.544  -5.559   0.000  0.00  0.00    +0.134 A 
ATOM     43  O   UNL     1     -11.142  -1.059   0.000  0.00  0.00    -0.286 OA
ATOM     44  C   UNL     1      -9.843  -4.809   0.000  0.00  0.00    +0.078 A 
ENDROOT
BRANCH  18  21
ATOM     21  C   UNL     1      -4.134  -1.899   0.000  0.00  0.00    +0.162 C 
ATOM     22  C   UNL     1      -5.098  -0.750   0.000  0.00  0.00    +0.089 C 
ATOM     23  O   UNL     1      -2.657  -1.639   0.000  0.00  0.00    -0.295 OA
ENDBRANCH  18  21
BRANCH   4   5
ATOM      5  O   UNL     1     -13.740  -7.059   0.000  0.00  0.00    -0.494 OA
ATOM      6  C   UNL     1     -15.039  -7.809   0.000  0.00  0.00    +0.277 C 
ENDBRANCH   4   5
BRANCH  13  14
ATOM     14  O   UNL     1      -8.544  -1.059   0.000  0.00  0.00    -0.506 OA
ATOM     15  H   UNL     1      -7.733  -0.590   0.000  0.00  0.00    +0.292 HD
ENDBRANCH  13  14
BRANCH  18  19
ATOM     19  O   UNL     1      -3.170  -3.569   0.000  0.00  0.00    -0.381 OA
ATOM     20  H   UNL     1      -2.838  -4.481   0.000  0.00  0.00    +0.211 HD
ENDBRANCH  18  19
BRANCH  40  41
ATOM     41  O   UNL     1      -8.544  -7.059   0.000  0.00  0.00    -0.506 OA
ATOM     42  H   UNL     1      -9.356  -7.527   0.000  0.00  0.00    +0.292 HD
ENDBRANCH  40  41
BRANCH  25  26
ATOM     26  O   UNL     1      -5.946  -7.059   0.000  0.00  0.00    -0.343 OA
BRANCH  26  27
ATOM     27  C   UNL     1      -4.647  -7.809   0.000  0.00  0.00    +0.253 C 
ATOM     28  C   UNL     1      -3.348  -7.059   0.000  0.00  0.00    +0.082 C 
ATOM     29  C   UNL     1      -2.049  -7.809   0.000  0.00  0.00    +0.087 C 
ATOM     33  C   UNL     1      -2.049  -9.309   0.000  0.00  0.00    +0.160 C 
ATOM     36  C   UNL     1      -3.348 -10.059   0.000  0.00  0.00    +0.148 C 
ATOM     37  C   UNL     1      -3.348  -8.559   0.000  0.00  0.00    +0.041 C 
ATOM     38  O   UNL     1      -4.647  -9.309   0.000  0.00  0.00    -0.346 OA
BRANCH  29  30
ATOM     30  N   UNL     1      -0.750  -7.059   0.000  0.00  0.00    -0.325 NA
ATOM     31  H   UNL     1      -0.750  -6.039   0.000  0.00  0.00    +0.119 HD
ATOM     32  H   UNL     1       0.133  -7.569   0.000  0.00  0.00    +0.119 HD
ENDBRANCH  29  30
BRANCH  33  34
ATOM     34  O   UNL     1      -0.750 -10.059   0.000  0.00  0.00    -0.388 OA
ATOM     35  H   UNL     1      -0.750 -11.029   0.000  0.00  0.00    +0.210 HD
ENDBRANCH  33  34
ENDBRANCH  26  27
ENDBRANCH  25  26
TORSDOF 9