REMARK  Name = NSC 785187#1
REMARK  8 active torsions:
REMARK  status: ('A' for Active; 'I' for Inactive)
REMARK    1  A    between atoms: O_1  and  C_2
REMARK    2  A    between atoms: O_1  and  C_26
REMARK    3  A    between atoms: C_3  and  O_23
REMARK    4  A    between atoms: C_15  and  O_16
REMARK    5  A    between atoms: O_16  and  C_17
REMARK    6  A    between atoms: C_18  and  O_19
REMARK    7  A    between atoms: O_19  and  C_20
REMARK    8  A    between atoms: O_23  and  C_24
REMARK                            x       y       z     vdW  Elec       q    Type
REMARK                         _______ _______ _______ _____ _____    ______ ____
ROOT
ATOM      2  C   UNL     1       8.957   6.000   0.000  0.00  0.00    +0.170 A 
ATOM      3  C   UNL     1      10.256   6.750   0.000  0.00  0.00    +0.162 A 
ATOM      4  C   UNL     1      11.555   6.000   0.000  0.00  0.00    +0.053 A 
ATOM      5  C   UNL     1      11.555   4.500   0.000  0.00  0.00    -0.037 A 
ATOM      6  C   UNL     1      12.855   3.750   0.000  0.00  0.00    +0.050 C 
ATOM      7  C   UNL     1      12.855   2.250   0.000  0.00  0.00    +0.086 C 
ATOM      8  N   UNL     1      11.555   1.500   0.000  0.00  0.00    -0.309 NA
ATOM      9  H   UNL     1      11.555   0.480   0.000  0.00  0.00    +0.123 HD
ATOM     10  C   UNL     1      10.256   2.250   0.000  0.00  0.00    +0.089 C 
ATOM     11  C   UNL     1       8.957   1.500   0.000  0.00  0.00    +0.059 C 
ATOM     12  C   UNL     1       7.658   2.250   0.000  0.00  0.00    -0.034 A 
ATOM     13  C   UNL     1       6.359   1.500   0.000  0.00  0.00    +0.008 A 
ATOM     14  C   UNL     1       5.060   2.250   0.000  0.00  0.00    +0.050 A 
ATOM     15  C   UNL     1       5.060   3.750   0.000  0.00  0.00    +0.162 A 
ATOM     18  C   UNL     1       6.359   4.500   0.000  0.00  0.00    +0.170 A 
ATOM     21  C   UNL     1       7.658   3.750   0.000  0.00  0.00    +0.035 A 
ATOM     22  C   UNL     1      10.256   3.750   0.000  0.00  0.00    -0.015 A 
ATOM     25  C   UNL     1       8.957   4.500   0.000  0.00  0.00    +0.036 A 
ENDROOT
BRANCH   2   1
ATOM      1  O   UNL     1       7.658   6.750   0.000  0.00  0.00    -0.491 OA
ATOM     26  C   UNL     1       7.658   8.250   0.000  0.00  0.00    +0.277 C 
ENDBRANCH   2   1
BRANCH  15  16
ATOM     16  O   UNL     1       3.761   4.500   0.000  0.00  0.00    -0.491 OA
ATOM     17  C   UNL     1       2.462   3.750   0.000  0.00  0.00    +0.277 C 
ENDBRANCH  15  16
BRANCH  18  19
ATOM     19  O   UNL     1       6.359   6.000   0.000  0.00  0.00    -0.491 OA
ATOM     20  C   UNL     1       5.060   6.750   0.000  0.00  0.00    +0.277 C 
ENDBRANCH  18  19
BRANCH   3  23
ATOM     23  O   UNL     1      10.256   8.250   0.000  0.00  0.00    -0.491 OA
ATOM     24  C   UNL     1      11.555   9.000   0.000  0.00  0.00    +0.277 C 
ENDBRANCH   3  23
TORSDOF 4