REMARK  Name = NSC 8661
REMARK  4 active torsions:
REMARK  status: ('A' for Active; 'I' for Inactive)
REMARK    1  A    between atoms: C_3  and  O_4
REMARK    2  A    between atoms: C_8  and  O_9
REMARK    3  A    between atoms: C_10  and  O_11
REMARK    4  A    between atoms: C_18  and  O_19
REMARK                            x       y       z     vdW  Elec       q    Type
REMARK                         _______ _______ _______ _____ _____    ______ ____
ROOT
ATOM      1  O   UNL     1       9.250   2.242   0.000  0.00  0.00    -0.489 OA
ATOM      2  C   UNL     1       7.951   1.492   0.000  0.00  0.00    +0.265 C 
ATOM      3  C   UNL     1       6.652   2.242   0.000  0.00  0.00    +0.115 C 
ATOM      6  C   UNL     1       5.225   1.778   0.000  0.00  0.00    +0.074 C 
ATOM      7  C   UNL     1       4.344   2.992   0.000  0.00  0.00    -0.037 A 
ATOM      8  C   UNL     1       2.852   3.149   0.000  0.00  0.00    +0.053 A 
ATOM      9  C   UNL     1       2.242   4.519   0.000  0.00  0.00    +0.158 A 
ATOM     12  C   UNL     1       3.123   5.732   0.000  0.00  0.00    +0.159 A 
ATOM     15  C   UNL     1       4.615   5.576   0.000  0.00  0.00    +0.053 A 
ATOM     16  C   UNL     1       5.225   4.205   0.000  0.00  0.00    -0.030 A 
ATOM     17  C   UNL     1       6.652   3.742   0.000  0.00  0.00    +0.088 C 
ATOM     18  C   UNL     1       7.951   4.492   0.000  0.00  0.00    +0.005 A 
ATOM     19  C   UNL     1       7.951   5.992   0.000  0.00  0.00    +0.011 A 
ATOM     20  C   UNL     1       9.250   6.742   0.000  0.00  0.00    +0.046 A 
ATOM     21  C   UNL     1      10.549   5.992   0.000  0.00  0.00    +0.120 A 
ATOM     24  C   UNL     1      10.549   4.492   0.000  0.00  0.00    +0.091 A 
ATOM     25  C   UNL     1       9.250   3.742   0.000  0.00  0.00    +0.128 A 
ENDROOT
BRANCH   3   4
ATOM      4  O   UNL     1       6.495   0.750   0.000  0.00  0.00    -0.384 OA
ATOM      5  H   UNL     1       5.609   0.355   0.000  0.00  0.00    +0.210 HD
ENDBRANCH   3   4
BRANCH   9  10
ATOM     10  O   UNL     1       0.750   4.676   0.000  0.00  0.00    -0.503 OA
ATOM     11  H   UNL     1       0.369   5.532   0.000  0.00  0.00    +0.292 HD
ENDBRANCH   9  10
BRANCH  12  13
ATOM     13  O   UNL     1       2.513   7.103   0.000  0.00  0.00    -0.503 OA
ATOM     14  H   UNL     1       3.064   7.861   0.000  0.00  0.00    +0.292 HD
ENDBRANCH  12  13
BRANCH  21  22
ATOM     22  O   UNL     1      11.848   6.742   0.000  0.00  0.00    -0.507 OA
ATOM     23  H   UNL     1      12.660   6.273   0.000  0.00  0.00    +0.292 HD
ENDBRANCH  21  22
TORSDOF 4