REMARK  Name = NSC 785182#1
REMARK  4 active torsions:
REMARK  status: ('A' for Active; 'I' for Inactive)
REMARK    1  A    between atoms: C_1  and  O_2
REMARK    2  A    between atoms: C_3  and  O_4
REMARK    3  A    between atoms: O_4  and  C_5
REMARK    4  A    between atoms: N_17  and  C_18
REMARK                            x       y       z     vdW  Elec       q    Type
REMARK                         _______ _______ _______ _____ _____    ______ ____
ROOT
ATOM      1  C   UNL     1     -11.974  -1.240   0.000  0.00  0.00    +0.159 A 
ATOM      4  C   UNL     1     -10.675  -0.490   0.000  0.00  0.00    +0.169 A 
ATOM      7  C   UNL     1      -9.376  -1.240   0.000  0.00  0.00    +0.035 A 
ATOM      8  C   UNL     1      -8.077  -0.490   0.000  0.00  0.00    +0.036 A 
ATOM      9  C   UNL     1      -8.077   1.010   0.000  0.00  0.00    +0.174 A 
ATOM     10  O   UNL     1      -9.192   2.014   0.000  0.00  0.00    -0.452 OA
ATOM     11  C   UNL     1      -8.582   3.384   0.000  0.00  0.00    +0.466 C 
ATOM     12  O   UNL     1      -7.090   3.227   0.000  0.00  0.00    -0.453 OA
ATOM     13  C   UNL     1      -6.778   1.760   0.000  0.00  0.00    +0.167 A 
ATOM     14  C   UNL     1      -5.479   1.010   0.000  0.00  0.00    +0.053 A 
ATOM     15  C   UNL     1      -5.479  -0.490   0.000  0.00  0.00    -0.037 A 
ATOM     16  C   UNL     1      -4.180  -1.240   0.000  0.00  0.00    +0.051 C 
ATOM     17  C   UNL     1      -4.180  -2.740   0.000  0.00  0.00    +0.089 C 
ATOM     18  N   UNL     1      -5.479  -3.490   0.000  0.00  0.00    -0.298 NA
ATOM     19  C   UNL     1      -5.479  -4.990   0.000  0.00  0.00    +0.105 C 
ATOM     20  C   UNL     1      -6.778  -2.740   0.000  0.00  0.00    +0.092 C 
ATOM     21  C   UNL     1      -8.077  -3.490   0.000  0.00  0.00    +0.059 C 
ATOM     22  C   UNL     1      -6.778  -1.240   0.000  0.00  0.00    -0.015 A 
ATOM     23  C   UNL     1      -9.376  -2.740   0.000  0.00  0.00    -0.034 A 
ATOM     24  C   UNL     1     -10.675  -3.490   0.000  0.00  0.00    +0.008 A 
ATOM     25  C   UNL     1     -11.974  -2.740   0.000  0.00  0.00    +0.049 A 
ENDROOT
BRANCH   1   2
ATOM      2  O   UNL     1     -13.273  -0.490   0.000  0.00  0.00    -0.503 OA
ATOM      3  H   UNL     1     -13.273   0.447   0.000  0.00  0.00    +0.292 HD
ENDBRANCH   1   2
BRANCH   4   5
ATOM      5  O   UNL     1     -10.675   1.010   0.000  0.00  0.00    -0.491 OA
ATOM      6  C   UNL     1     -11.974   1.760   0.000  0.00  0.00    +0.277 C 
ENDBRANCH   4   5
TORSDOF 2