REMARK  Name = NSC 86005
REMARK  14 active torsions:
REMARK  status: ('A' for Active; 'I' for Inactive)
REMARK    1  A    between atoms: C_2  and  C_3
REMARK    2  A    between atoms: C_7  and  O_8
REMARK    3  A    between atoms: C_9  and  N_10
REMARK    4  A    between atoms: N_10  and  C_11
REMARK    5  A    between atoms: N_10  and  C_12
REMARK    6  A    between atoms: C_13  and  O_14
REMARK    7  A    between atoms: C_22  and  C_23
REMARK    8  A    between atoms: C_23  and  O_24
REMARK    9  A    between atoms: O_24  and  C_25
REMARK   10  A    between atoms: C_27  and  O_28
REMARK   11  A    between atoms: C_27  and  C_29
REMARK   12  A    between atoms: C_31  and  O_32
REMARK   13  A    between atoms: C_34  and  O_35
REMARK   14  A    between atoms: C_40  and  O_41
REMARK                            x       y       z     vdW  Elec       q    Type
REMARK                         _______ _______ _______ _____ _____    ______ ____
ROOT
ATOM      1  C   UNL     1       5.946   4.500   0.000  0.00  0.00    +0.033 A 
ATOM      2  C   UNL     1       4.647   5.250   0.000  0.00  0.00    +0.126 C 
ATOM      3  C   UNL     1       3.897   3.951   0.000  0.00  0.00    +0.050 C 
ATOM      4  O   UNL     1       4.647   6.750   0.000  0.00  0.00    -0.326 OA
ATOM      5  C   UNL     1       5.946   7.500   0.000  0.00  0.00    +0.339 C 
ATOM      6  O   UNL     1       7.245   6.750   0.000  0.00  0.00    -0.460 OA
ATOM      7  C   UNL     1       4.647   8.250   0.000  0.00  0.00    +0.202 C 
ATOM     10  C   UNL     1       3.348   7.500   0.000  0.00  0.00    +0.123 C 
ATOM     14  C   UNL     1       3.348   6.000   0.000  0.00  0.00    +0.170 C 
ATOM     17  C   UNL     1       7.245   5.250   0.000  0.00  0.00    +0.142 A 
ATOM     18  C   UNL     1       8.544   4.500   0.000  0.00  0.00    +0.079 A 
ATOM     19  C   UNL     1       9.843   5.250   0.000  0.00  0.00    +0.198 C 
ATOM     20  O   UNL     1       9.843   6.750   0.000  0.00  0.00    -0.286 OA
ATOM     21  C   UNL     1      11.142   4.500   0.000  0.00  0.00    +0.037 A 
ATOM     22  C   UNL     1      12.441   5.250   0.000  0.00  0.00    +0.017 A 
ATOM     23  C   UNL     1      13.740   4.500   0.000  0.00  0.00    -0.021 A 
ATOM     24  C   UNL     1      15.039   5.250   0.000  0.00  0.00    +0.159 C 
ATOM     29  C   UNL     1      16.339   4.500   0.000  0.00  0.00    +0.083 C 
ATOM     32  C   UNL     1      16.852   5.910   0.000  0.00  0.00    +0.042 C 
ATOM     33  C   UNL     1      16.339   3.000   0.000  0.00  0.00    +0.072 C 
ATOM     34  C   UNL     1      15.039   2.250   0.000  0.00  0.00    +0.151 C 
ATOM     37  C   UNL     1      13.740   3.000   0.000  0.00  0.00    +0.027 A 
ATOM     38  C   UNL     1      12.441   2.250   0.000  0.00  0.00    +0.134 A 
ATOM     41  C   UNL     1      11.142   3.000   0.000  0.00  0.00    +0.075 A 
ATOM     42  C   UNL     1       9.843   2.250   0.000  0.00  0.00    +0.202 C 
ATOM     43  O   UNL     1       9.843   0.750   0.000  0.00  0.00    -0.286 OA
ATOM     44  C   UNL     1       8.544   3.000   0.000  0.00  0.00    +0.078 A 
ATOM     45  C   UNL     1       7.245   2.250   0.000  0.00  0.00    +0.129 A 
ATOM     48  C   UNL     1       5.946   3.000   0.000  0.00  0.00    +0.056 A 
ENDROOT
BRANCH  10  11
ATOM     11  N   UNL     1       2.049   8.250   0.000  0.00  0.00    -0.301 NA
ATOM     12  C   UNL     1       2.049   9.750   0.000  0.00  0.00    +0.105 C 
ATOM     13  C   UNL     1       0.750   7.500   0.000  0.00  0.00    +0.105 C 
ENDBRANCH  10  11
BRANCH   7   8
ATOM      8  O   UNL     1       4.647   9.750   0.000  0.00  0.00    -0.384 OA
ATOM      9  H   UNL     1       5.487  10.235   0.000  0.00  0.00    +0.210 HD
ENDBRANCH   7   8
BRANCH  14  15
ATOM     15  O   UNL     1       2.049   5.250   0.000  0.00  0.00    -0.387 OA
ATOM     16  H   UNL     1       1.209   5.735   0.000  0.00  0.00    +0.210 HD
ENDBRANCH  14  15
BRANCH  24  25
ATOM     25  C   UNL     1      15.039   6.750   0.000  0.00  0.00    +0.317 C 
ATOM     28  O   UNL     1      13.740   7.500   0.000  0.00  0.00    -0.250 OA
BRANCH  25  26
ATOM     26  O   UNL     1      16.339   7.500   0.000  0.00  0.00    -0.467 OA
ATOM     27  C   UNL     1      17.637   6.750   0.000  0.00  0.00    +0.280 C 
ENDBRANCH  25  26
ENDBRANCH  24  25
BRANCH  29  30
ATOM     30  O   UNL     1      17.816   4.239   0.000  0.00  0.00    -0.388 OA
ATOM     31  H   UNL     1      18.147   3.328   0.000  0.00  0.00    +0.210 HD
ENDBRANCH  29  30
BRANCH  34  35
ATOM     35  O   UNL     1      15.039   0.750   0.000  0.00  0.00    -0.387 OA
ATOM     36  H   UNL     1      14.199   0.265   0.000  0.00  0.00    +0.210 HD
ENDBRANCH  34  35
BRANCH  38  39
ATOM     39  O   UNL     1      12.441   0.750   0.000  0.00  0.00    -0.506 OA
ATOM     40  H   UNL     1      11.630   0.281   0.000  0.00  0.00    +0.292 HD
ENDBRANCH  38  39
BRANCH  45  46
ATOM     46  O   UNL     1       7.245   0.750   0.000  0.00  0.00    -0.506 OA
ATOM     47  H   UNL     1       6.434   0.281   0.000  0.00  0.00    +0.292 HD
ENDBRANCH  45  46
TORSDOF 9