REMARK  Name = NSC 83436
REMARK  10 active torsions:
REMARK  status: ('A' for Active; 'I' for Inactive)
REMARK    1  A    between atoms: C_2  and  C_3
REMARK    2  A    between atoms: C_2  and  C_4
REMARK    3  A    between atoms: C_10  and  O_11
REMARK    4  A    between atoms: O_11  and  C_12
REMARK    5  A    between atoms: C_13  and  C_14
REMARK    6  A    between atoms: C_14  and  C_15
REMARK    7  A    between atoms: C_15  and  C_16
REMARK    8  A    between atoms: C_16  and  O_17
REMARK    9  A    between atoms: C_21  and  C_22
REMARK   10  A    between atoms: C_21  and  C_23
REMARK                            x       y       z     vdW  Elec       q    Type
REMARK                         _______ _______ _______ _____ _____    ______ ____
ROOT
ATOM      1  O   UNL     1       0.924   4.399   0.000  0.00  0.00    -0.481 OA
ATOM      2  C   UNL     1      -0.375   5.149   0.000  0.00  0.00    +0.124 C 
ATOM      3  C   UNL     1      -0.888   3.740   0.000  0.00  0.00    +0.060 C 
ATOM      4  C   UNL     1      -1.852   5.410   0.000  0.00  0.00    +0.060 C 
ATOM      5  C   UNL     1      -0.375   6.649   0.000  0.00  0.00    +0.020 C 
ATOM      6  C   UNL     1       0.924   7.399   0.000  0.00  0.00    +0.015 C 
ATOM      7  C   UNL     1       2.223   6.649   0.000  0.00  0.00    +0.059 A 
ATOM      8  C   UNL     1       3.522   7.399   0.000  0.00  0.00    +0.143 A 
ATOM      9  C   UNL     1       4.821   6.649   0.000  0.00  0.00    +0.059 A 
ATOM     10  C   UNL     1       4.821   5.149   0.000  0.00  0.00    +0.137 A 
ATOM     13  C   UNL     1       3.522   4.399   0.000  0.00  0.00    +0.038 A 
ATOM     20  C   UNL     1       6.120   7.399   0.000  0.00  0.00    +0.015 C 
ATOM     21  C   UNL     1       6.120   8.899   0.000  0.00  0.00    +0.020 C 
ATOM     22  C   UNL     1       4.821   9.649   0.000  0.00  0.00    +0.124 C 
ATOM     23  C   UNL     1       5.785  10.799   0.000  0.00  0.00    +0.060 C 
ATOM     24  C   UNL     1       3.857  10.799   0.000  0.00  0.00    +0.060 C 
ATOM     25  O   UNL     1       3.522   8.899   0.000  0.00  0.00    -0.481 OA
ATOM     26  C   UNL     1       2.223   5.149   0.000  0.00  0.00    +0.139 A 
ENDROOT
BRANCH  10  11
ATOM     11  O   UNL     1       6.120   4.399   0.000  0.00  0.00    -0.494 OA
ATOM     12  C   UNL     1       7.419   5.149   0.000  0.00  0.00    +0.277 C 
ENDBRANCH  10  11
BRANCH  13  14
ATOM     14  C   UNL     1       3.522   2.900   0.000  0.00  0.00    +0.053 C 
BRANCH  14  15
ATOM     15  C   UNL     1       2.113   2.386   0.000  0.00  0.00    +0.125 C 
BRANCH  15  16
ATOM     16  C   UNL     1       1.852   0.909   0.000  0.00  0.00    +0.305 C 
ATOM     19  O   UNL     1       3.001  -0.055   0.000  0.00  0.00    -0.251 OA
BRANCH  16  17
ATOM     17  O   UNL     1       0.443   0.396   0.000  0.00  0.00    -0.481 OA
ATOM     18  H   UNL     1      -0.275   0.999   0.000  0.00  0.00    +0.295 HD
ENDBRANCH  16  17
ENDBRANCH  15  16
ENDBRANCH  14  15
ENDBRANCH  13  14
TORSDOF 5