REMARK  Name = 689857
REMARK  9 active torsions:
REMARK  status: ('A' for Active; 'I' for Inactive)
REMARK    1  A    between atoms: C_3  and  O_9
REMARK    2  A    between atoms: C_5  and  C_7
REMARK    3  A    between atoms: C_6  and  O_8
REMARK    4  A    between atoms: C_7  and  N_10
REMARK    5  A    between atoms: N_10  and  C_11
REMARK    6  A    between atoms: C_14  and  C_17
REMARK    7  A    between atoms: C_17  and  O_19
REMARK    8  A    between atoms: O_19  and  C_20
REMARK    9  A    between atoms: C_20  and  C_21
REMARK                            x       y       z     vdW  Elec       q    Type
REMARK                         _______ _______ _______ _____ _____    ______ ____
ROOT
ATOM      9  C   UNL     1       7.224   7.522   0.000  0.00  0.00    +0.027 A 
ATOM     10  C   UNL     1       6.487   6.216   0.000  0.00  0.00    +0.024 A 
ATOM     11  C   UNL     1       7.249   4.924   0.000  0.00  0.00    +0.017 A 
ATOM     12  C   UNL     1       8.749   4.939   0.000  0.00  0.00    +0.059 A 
ATOM     27  C   UNL     1       9.486   6.245   0.000  0.00  0.00    +0.017 A 
ATOM     28  C   UNL     1       8.724   7.537   0.000  0.00  0.00    +0.024 A 
ENDROOT
BRANCH   9   7
ATOM      7  N   UNL     1       6.461   8.814   0.000  0.00  0.00    -0.340 N 
ATOM      8  H   UNL     1       6.945   9.671   0.000  0.00  0.00    +0.146 HD
BRANCH   7   6
ATOM      6  C   UNL     1       4.961   8.799   0.000  0.00  0.00    +0.140 C 
BRANCH   6   5
ATOM      1  C   UNL     1       1.936  11.367   0.000  0.00  0.00    +0.049 A 
ATOM      2  C   UNL     1       2.699  10.076   0.000  0.00  0.00    +0.122 A 
ATOM      5  C   UNL     1       4.199  10.091   0.000  0.00  0.00    +0.014 A 
ATOM     29  C   UNL     1       4.936  11.397   0.000  0.00  0.00    +0.054 A 
ATOM     30  C   UNL     1       4.173  12.688   0.000  0.00  0.00    +0.117 A 
ATOM     33  C   UNL     1       2.673  12.674   0.000  0.00  0.00    +0.049 A 
BRANCH   2   3
ATOM      3  O   UNL     1       1.962   8.770   0.000  0.00  0.00    -0.506 OA
ATOM      4  H   UNL     1       1.025   8.760   0.000  0.00  0.00    +0.292 HD
ENDBRANCH   2   3
BRANCH  30  31
ATOM     31  O   UNL     1       4.910  13.995   0.000  0.00  0.00    -0.507 OA
ATOM     32  H   UNL     1       5.847  14.004   0.000  0.00  0.00    +0.292 HD
ENDBRANCH  30  31
ENDBRANCH   6   5
ENDBRANCH   7   6
ENDBRANCH   9   7
BRANCH  12  13
ATOM     13  C   UNL     1       9.512   3.647   0.000  0.00  0.00    +0.339 C 
ATOM     26  O   UNL     1       8.775   2.341   0.000  0.00  0.00    -0.245 OA
BRANCH  13  14
ATOM     14  O   UNL     1      11.012   3.662   0.000  0.00  0.00    -0.461 OA
BRANCH  14  15
ATOM     15  C   UNL     1      11.774   2.370   0.000  0.00  0.00    +0.239 C 
BRANCH  15  16
ATOM     16  C   UNL     1      13.274   2.385   0.000  0.00  0.00    +0.006 C 
ATOM     17  C   UNL     1      14.243   0.750   0.000  0.00  0.00    +0.013 C 
ATOM     18  C   UNL     1      16.146   0.767   0.000  0.00  0.00    -0.010 C 
ATOM     19  C   UNL     1      17.080   2.422   0.000  0.00  0.00    +0.007 C 
ATOM     20  C   UNL     1      16.114   4.060   0.000  0.00  0.00    -0.010 C 
ATOM     21  C   UNL     1      15.166   3.502   0.000  0.00  0.00    +0.007 C 
ATOM     22  C   UNL     1      15.177   2.405   0.000  0.00  0.00    -0.010 C 
ATOM     23  C   UNL     1      16.133   1.867   0.000  0.00  0.00    +0.007 C 
ATOM     24  C   UNL     1      14.213   4.042   0.000  0.00  0.00    +0.013 C 
ATOM     25  C   UNL     1      14.232   1.847   0.000  0.00  0.00    +0.013 C 
ENDBRANCH  15  16
ENDBRANCH  14  15
ENDBRANCH  13  14
ENDBRANCH  12  13
TORSDOF 9