REMARK  Name = 625748
REMARK  0 active torsions:
REMARK  status: ('A' for Active; 'I' for Inactive)
REMARK                            x       y       z     vdW  Elec       q    Type
REMARK                         _______ _______ _______ _____ _____    ______ ____
ROOT
ATOM      1  C   UNL     1      -2.049   7.371   0.000  0.00  0.00    +0.257 A 
ATOM      2  N   UNL     1      -2.049   8.871   0.000  0.00  0.00    -0.297 N 
ATOM      3  C   UNL     1      -0.988   9.932   0.000  0.00  0.00    +0.109 C 
ATOM      4  C   UNL     1      -2.049  10.993   0.000  0.00  0.00    +0.038 C 
ATOM      5  C   UNL     1      -3.110   9.932   0.000  0.00  0.00    +0.109 C 
ATOM      6  N   UNL     1      -0.750   6.621   0.000  0.00  0.00    -0.108 NA
ATOM      7  N   UNL     1      -0.750   5.121   0.000  0.00  0.00    -0.108 NA
ATOM      8  C   UNL     1      -2.049   4.371   0.000  0.00  0.00    +0.257 A 
ATOM      9  N   UNL     1      -2.049   2.871   0.000  0.00  0.00    -0.297 N 
ATOM     10  C   UNL     1      -0.988   1.811   0.000  0.00  0.00    +0.109 C 
ATOM     11  C   UNL     1      -2.049   0.750   0.000  0.00  0.00    +0.038 C 
ATOM     12  C   UNL     1      -3.110   1.811   0.000  0.00  0.00    +0.109 C 
ATOM     13  N   UNL     1      -3.348   5.121   0.000  0.00  0.00    -0.108 NA
ATOM     14  N   UNL     1      -3.348   6.621   0.000  0.00  0.00    -0.108 NA
ENDROOT
TORSDOF 0