REMARK  Name = 664329
REMARK  7 active torsions:
REMARK  status: ('A' for Active; 'I' for Inactive)
REMARK    1  A    between atoms: C_4  and  C_8
REMARK    2  A    between atoms: C_8  and  C_11
REMARK    3  A    between atoms: N_9  and  O_10
REMARK    4  A    between atoms: C_11  and  C_12
REMARK    5  A    between atoms: C_12  and  O_13
REMARK    6  A    between atoms: C_12  and  C_14
REMARK    7  A    between atoms: C_12  and  C_18
REMARK                            x       y       z     vdW  Elec       q    Type
REMARK                         _______ _______ _______ _____ _____    ______ ____
ROOT
ATOM      7  C   UNL     1      -2.241  -4.806   0.000  0.00  0.00    +0.112 C 
ENDROOT
BRANCH   7   6
ATOM      6  C   UNL     1      -3.540  -4.056   0.000  0.00  0.00    +0.090 C 
ATOM     19  N   UNL     1      -3.540  -2.556   0.000  0.00  0.00    -0.091 NA
BRANCH   6   5
ATOM      1  C   UNL     1      -7.437  -6.306   0.000  0.00  0.00    +0.020 A 
ATOM      2  C   UNL     1      -6.138  -7.056   0.000  0.00  0.00    +0.042 A 
ATOM      3 CL   UNL     1      -6.138  -8.556   0.000  0.00  0.00    -0.084 Cl
ATOM      4  C   UNL     1      -4.839  -6.306   0.000  0.00  0.00    +0.029 A 
ATOM      5  C   UNL     1      -4.839  -4.806   0.000  0.00  0.00    +0.001 A 
ATOM     22  C   UNL     1      -6.138  -4.056   0.000  0.00  0.00    +0.010 A 
ATOM     23  C   UNL     1      -7.437  -4.806   0.000  0.00  0.00    +0.002 A 
ENDBRANCH   6   5
BRANCH  19  20
ATOM     20  O   UNL     1      -2.241  -1.806   0.000  0.00  0.00    -0.409 OA
ATOM     21  H   UNL     1      -1.430  -2.275   0.000  0.00  0.00    +0.328 HD
ENDBRANCH  19  20
ENDBRANCH   7   6
BRANCH   7   8
ATOM      8  C   UNL     1      -0.764  -4.546   0.000  0.00  0.00    +0.262 C 
BRANCH   8   9
ATOM      9  C   UNL     1      -1.025  -3.069   0.000  0.00  0.00    +0.427 C 
ATOM     10  F   UNL     1       0.453  -2.808   0.000  0.00  0.00    -0.167 F 
ATOM     11  F   UNL     1      -2.502  -3.329   0.000  0.00  0.00    -0.167 F 
ATOM     12  F   UNL     1      -1.285  -1.591   0.000  0.00  0.00    -0.167 F 
ENDBRANCH   8   9
BRANCH   8  13
ATOM     13  C   UNL     1      -0.504  -6.023   0.000  0.00  0.00    +0.427 C 
ATOM     14  F   UNL     1       0.974  -5.763   0.000  0.00  0.00    -0.167 F 
ATOM     15  F   UNL     1      -1.981  -6.284   0.000  0.00  0.00    -0.167 F 
ATOM     16  F   UNL     1      -0.243  -7.500   0.000  0.00  0.00    -0.167 F 
ENDBRANCH   8  13
BRANCH   8  17
ATOM     17  O   UNL     1       0.713  -4.285   0.000  0.00  0.00    -0.373 OA
ATOM     18  H   UNL     1       1.337  -5.029   0.000  0.00  0.00    +0.211 HD
ENDBRANCH   8  17
ENDBRANCH   7   8
TORSDOF 7