REMARK  Name = 614826
REMARK  9 active torsions:
REMARK  status: ('A' for Active; 'I' for Inactive)
REMARK    1  A    between atoms: C_6  and  C_7
REMARK    2  A    between atoms: C_7  and  C_13
REMARK    3  A    between atoms: C_7  and  C_15
REMARK    4  A    between atoms: C_10  and  O_20
REMARK    5  A    between atoms: C_18  and  O_21
REMARK    6  A    between atoms: O_20  and  C_22
REMARK    7  A    between atoms: O_21  and  C_25
REMARK    8  A    between atoms: C_22  and  C_24
REMARK    9  A    between atoms: C_25  and  C_27
REMARK                            x       y       z     vdW  Elec       q    Type
REMARK                         _______ _______ _______ _____ _____    ______ ____
ROOT
ATOM      3  C   UNL     1      -3.750   8.544   0.000  0.00  0.00    +0.097 C 
ENDROOT
BRANCH   3   2
ATOM      1  N   UNL     1      -6.000   9.843   0.000  0.00  0.00    -0.259 NA
ATOM      2  C   UNL     1      -5.250   8.544   0.000  0.00  0.00    +0.053 A 
ATOM     24  C   UNL     1      -6.000   7.245   0.000  0.00  0.00    +0.024 A 
ATOM     25  C   UNL     1      -7.500   7.245   0.000  0.00  0.00    +0.003 A 
ATOM     26  C   UNL     1      -8.250   8.544   0.000  0.00  0.00    +0.020 A 
ATOM     27  C   UNL     1      -7.500   9.843   0.000  0.00  0.00    +0.111 A 
ENDBRANCH   3   2
BRANCH   3   4
ATOM      4  C   UNL     1      -3.000   9.843   0.000  0.00  0.00    -0.034 A 
ATOM      5  C   UNL     1      -1.500   9.843   0.000  0.00  0.00    +0.008 A 
ATOM      6  C   UNL     1      -0.750  11.142   0.000  0.00  0.00    +0.046 A 
ATOM      7  C   UNL     1      -1.500  12.441   0.000  0.00  0.00    +0.132 A 
ATOM     12  C   UNL     1      -3.000  12.441   0.000  0.00  0.00    +0.046 A 
ATOM     13  C   UNL     1      -3.750  11.142   0.000  0.00  0.00    +0.008 A 
BRANCH   7   8
ATOM      8  O   UNL     1      -0.750  13.740   0.000  0.00  0.00    -0.426 OA
BRANCH   8   9
ATOM      9  C   UNL     1      -1.500  15.039   0.000  0.00  0.00    +0.309 C 
ATOM     10  C   UNL     1      -0.750  16.339   0.000  0.00  0.00    +0.136 C 
ATOM     11  O   UNL     1      -3.000  15.039   0.000  0.00  0.00    -0.251 OA
ENDBRANCH   8   9
ENDBRANCH   7   8
ENDBRANCH   3   4
BRANCH   3  14
ATOM     14  C   UNL     1      -3.000   7.245   0.000  0.00  0.00    -0.034 A 
ATOM     15  C   UNL     1      -1.500   7.245   0.000  0.00  0.00    +0.008 A 
ATOM     16  C   UNL     1      -0.750   5.946   0.000  0.00  0.00    +0.046 A 
ATOM     17  C   UNL     1      -1.500   4.647   0.000  0.00  0.00    +0.132 A 
ATOM     22  C   UNL     1      -3.000   4.647   0.000  0.00  0.00    +0.046 A 
ATOM     23  C   UNL     1      -3.750   5.946   0.000  0.00  0.00    +0.008 A 
BRANCH  17  18
ATOM     18  O   UNL     1      -0.750   3.348   0.000  0.00  0.00    -0.426 OA
BRANCH  18  19
ATOM     19  C   UNL     1      -1.500   2.049   0.000  0.00  0.00    +0.309 C 
ATOM     20  C   UNL     1      -0.750   0.750   0.000  0.00  0.00    +0.136 C 
ATOM     21  O   UNL     1      -3.000   2.049   0.000  0.00  0.00    -0.251 OA
ENDBRANCH  18  19
ENDBRANCH  17  18
ENDBRANCH   3  14
TORSDOF 7