REMARK  Name = 625639
REMARK  4 active torsions:
REMARK  status: ('A' for Active; 'I' for Inactive)
REMARK    1  A    between atoms: C_1  and  C_2
REMARK    2  A    between atoms: C_7  and  N_8
REMARK    3  A    between atoms: C_9  and  C_11
REMARK    4  A    between atoms: N_12  and  O_13
REMARK                            x       y       z     vdW  Elec       q    Type
REMARK                         _______ _______ _______ _____ _____    ______ ____
ROOT
ATOM      4  N   UNL     1       4.647   2.250   0.000  0.00  0.00    -0.280 N 
ATOM      5  H   UNL     1       4.647   1.266   0.000  0.00  0.00    +0.155 HD
ATOM      6  C   UNL     1       5.946   3.000   0.000  0.00  0.00    +0.262 C 
ATOM     11  O   UNL     1       5.946   4.500   0.000  0.00  0.00    -0.269 OA
ENDROOT
BRANCH   4   3
ATOM      1  C   UNL     1       2.049   0.750   0.000  0.00  0.00    +0.045 C 
ATOM      2  C   UNL     1       2.049   2.250   0.000  0.00  0.00    -0.029 A 
ATOM      3  C   UNL     1       3.348   3.000   0.000  0.00  0.00    +0.037 A 
ATOM     12  C   UNL     1       3.348   4.500   0.000  0.00  0.00    +0.023 A 
ATOM     13  C   UNL     1       2.049   5.250   0.000  0.00  0.00    +0.002 A 
ATOM     14  C   UNL     1       0.750   4.500   0.000  0.00  0.00    +0.000 A 
ATOM     15  C   UNL     1       0.750   3.000   0.000  0.00  0.00    +0.005 A 
ENDBRANCH   4   3
BRANCH   6   7
ATOM      7  C   UNL     1       7.245   2.250   0.000  0.00  0.00    +0.220 C 
ATOM      8  N   UNL     1       8.544   3.000   0.000  0.00  0.00    -0.090 NA
BRANCH   8   9
ATOM      9  O   UNL     1       9.843   2.250   0.000  0.00  0.00    -0.409 OA
ATOM     10  H   UNL     1       9.843   1.313   0.000  0.00  0.00    +0.328 HD
ENDBRANCH   8   9
ENDBRANCH   6   7
TORSDOF 3