REMARK  Name = 49842
REMARK  21 active torsions:
REMARK  status: ('A' for Active; 'I' for Inactive)
REMARK    1  A    between atoms: N_3  and  C_44
REMARK    2  A    between atoms: C_9  and  C_46
REMARK    3  A    between atoms: C_9  and  O_48
REMARK    4  A    between atoms: C_13  and  C_36
REMARK    5  A    between atoms: C_13  and  C_60
REMARK    6  A    between atoms: C_27  and  C_53
REMARK    7  A    between atoms: C_32  and  O_49
REMARK    8  A    between atoms: C_38  and  O_42
REMARK    9  A    between atoms: C_39  and  O_45
REMARK   10  A    between atoms: C_39  and  C_64
REMARK   11  A    between atoms: O_42  and  C_43
REMARK   12  A    between atoms: C_46  and  C_47
REMARK   13  A    between atoms: O_49  and  C_50
REMARK   14  A    between atoms: C_50  and  C_52
REMARK   15  A    between atoms: C_53  and  C_54
REMARK   16  A    between atoms: S_55  and  O_57
REMARK   17  A    between atoms: S_55  and  O_59
REMARK   18  A    between atoms: C_60  and  O_62
REMARK   19  A    between atoms: O_62  and  C_63
REMARK   20  A    between atoms: C_64  and  O_66
REMARK   21  A    between atoms: O_66  and  C_67
REMARK                            x       y       z     vdW  Elec       q    Type
REMARK                         _______ _______ _______ _____ _____    ______ ____
ROOT
ATOM      1  S   UNL     1      15.450   6.782   0.000  0.00  0.00    +0.205 S 
ATOM      4  O   UNL     1      13.950   6.782   0.000  0.00  0.00    -0.118 OA
ATOM      7  O   UNL     1      16.950   6.782   0.000  0.00  0.00    -0.118 OA
ENDROOT
BRANCH   1   2
ATOM      2  O   UNL     1      15.450   5.282   0.000  0.00  0.00    -0.231 OA
ATOM      3  H   UNL     1      14.610   4.797   0.000  0.00  0.00    +0.247 HD
ENDBRANCH   1   2
BRANCH   1   5
ATOM      5  O   UNL     1      15.450   8.281   0.000  0.00  0.00    -0.231 OA
ATOM      6  H   UNL     1      16.290   8.766   0.000  0.00  0.00    +0.247 HD
ENDBRANCH   1   5
TORSDOF 2