REMARK  Name = 529469
REMARK  7 active torsions:
REMARK  status: ('A' for Active; 'I' for Inactive)
REMARK    1  A    between atoms: C_1  and  O_2
REMARK    2  A    between atoms: C_1  and  CA_4
REMARK    3  A    between atoms: CA_4  and  N_5
REMARK    4  A    between atoms: CA_4  and  C_6
REMARK    5  A    between atoms: C_6  and  N_7
REMARK    6  A    between atoms: N_7  and  O_8
REMARK    7  A    between atoms: N_7  and  N_9
REMARK                            x       y       z     vdW  Elec       q    Type
REMARK                         _______ _______ _______ _____ _____    ______ ____
ROOT
ATOM      2  CA  UNL     1      -5.524  -0.275   0.000  0.00  0.00    +0.184 C 
ENDROOT
BRANCH   2   9
ATOM      9  N   UNL     1      -7.024  -0.275   0.000  0.00  0.00    -0.317 NA
ATOM     10  H1  UNL     1      -7.534  -1.158   0.000  0.00  0.00    +0.119 HD
ATOM     11  H2  UNL     1      -7.534   0.609   0.000  0.00  0.00    +0.119 HD
ENDBRANCH   2   9
BRANCH   2   1
ATOM      1  C   UNL     1      -4.774   1.025   0.000  0.00  0.00    +0.324 C 
ATOM     12  OXT UNL     1      -3.275   1.025   0.000  0.00  0.00    -0.249 OA
BRANCH   1  13
ATOM     13  O   UNL     1      -5.524   2.324   0.000  0.00  0.00    -0.479 OA
ATOM     14  H   UNL     1      -5.056   3.135   0.000  0.00  0.00    +0.295 HD
ENDBRANCH   1  13
ENDBRANCH   2   1
BRANCH   2   3
ATOM      3  C   UNL     1      -4.774  -1.574   0.000  0.00  0.00    +0.204 C 
BRANCH   3   4
ATOM      4  N   UNL     1      -3.275  -1.574   0.000  0.00  0.00    -0.135 N 
BRANCH   4   5
ATOM      5  N   UNL     1      -2.525  -0.275   0.000  0.00  0.00    +0.079 NA
ATOM      6  O   UNL     1      -1.025  -0.275   0.000  0.00  0.00    -0.122 OA
ENDBRANCH   4   5
BRANCH   4   7
ATOM      7  O   UNL     1      -2.525  -2.873   0.000  0.00  0.00    -0.268 OA
ATOM      8  H   UNL     1      -3.009  -3.713   0.000  0.00  0.00    +0.246 HD
ENDBRANCH   4   7
ENDBRANCH   3   4
ENDBRANCH   2   3
TORSDOF 7