REMARK  Name = 637993
REMARK  11 active torsions:
REMARK  status: ('A' for Active; 'I' for Inactive)
REMARK    1  A    between atoms: C_1  and  O_20
REMARK    2  A    between atoms: C_14  and  N_18
REMARK    3  A    between atoms: C_16  and  C_19
REMARK    4  A    between atoms: N_18  and  C_22
REMARK    5  A    between atoms: O_20  and  C_21
REMARK    6  A    between atoms: C_22  and  C_23
REMARK    7  A    between atoms: C_23  and  N_24
REMARK    8  A    between atoms: N_24  and  C_25
REMARK    9  A    between atoms: N_24  and  C_27
REMARK   10  A    between atoms: C_25  and  C_26
REMARK   11  A    between atoms: C_27  and  C_28
REMARK                            x       y       z     vdW  Elec       q    Type
REMARK                         _______ _______ _______ _____ _____    ______ ____
ROOT
ATOM      1 CL   UNL     1      11.967   4.228   0.000  0.00  0.00    -0.145 Cl
ATOM      2  H   UNL     1      13.297   4.228   0.000  0.00  0.00    +0.145 HD
ENDROOT
TORSDOF 0