REMARK  Name = 621094
REMARK  4 active torsions:
REMARK  status: ('A' for Active; 'I' for Inactive)
REMARK    1  A    between atoms: N_1  and  C_6
REMARK    2  A    between atoms: C_5  and  C_7
REMARK    3  A    between atoms: N_8  and  C_9
REMARK    4  A    between atoms: C_16  and  C_17
REMARK                            x       y       z     vdW  Elec       q    Type
REMARK                         _______ _______ _______ _____ _____    ______ ____
ROOT
ATOM     10  C   UNL     1      -1.448  -9.347   0.000  0.00  0.00    +0.261 C 
ATOM     11  C   UNL     1      -2.948  -9.347   0.000  0.00  0.00    +0.070 C 
ATOM     12  C   UNL     1      -3.830  -8.134   0.000  0.00  0.00    +0.065 C 
ATOM     13  N   UNL     1      -3.412 -10.774   0.000  0.00  0.00    -0.176 NA
ATOM     14  N   UNL     1      -2.198 -11.655   0.000  0.00  0.00    -0.121 N 
ATOM     15  C   UNL     1      -2.198 -13.155   0.000  0.00  0.00    +0.273 C 
ATOM     16  O   UNL     1      -3.497 -13.905   0.000  0.00  0.00    -0.268 OA
ATOM     23  C   UNL     1      -0.985 -10.774   0.000  0.00  0.00    +0.274 C 
ATOM     24  O   UNL     1       0.442 -11.237   0.000  0.00  0.00    -0.271 OA
ENDROOT
BRANCH  15  17
ATOM     17  C   UNL     1      -0.899 -13.905   0.000  0.00  0.00    +0.042 A 
ATOM     18  C   UNL     1       0.400 -13.155   0.000  0.00  0.00    +0.033 A 
ATOM     19  C   UNL     1       1.699 -13.905   0.000  0.00  0.00    +0.111 A 
ATOM     20  N   UNL     1       1.699 -15.405   0.000  0.00  0.00    -0.263 NA
ATOM     21  C   UNL     1       0.400 -16.155   0.000  0.00  0.00    +0.111 A 
ATOM     22  C   UNL     1      -0.899 -15.405   0.000  0.00  0.00    +0.033 A 
ENDBRANCH  15  17
BRANCH  10   1
ATOM      1  N   UNL     1      -0.567  -8.134   0.000  0.00  0.00    -0.168 NA
ATOM      2  N   UNL     1       0.925  -8.290   0.000  0.00  0.00    -0.154 NA
BRANCH   2   3
ATOM      3  C   UNL     1       1.807  -7.077   0.000  0.00  0.00    +0.086 A 
ATOM      4  C   UNL     1       3.299  -7.234   0.000  0.00  0.00    +0.032 A 
ATOM      5  C   UNL     1       4.180  -6.020   0.000  0.00  0.00    +0.040 A 
ATOM      6  C   UNL     1       3.570  -4.650   0.000  0.00  0.00    +0.124 A 
ATOM      7  F   UNL     1       4.452  -3.436   0.000  0.00  0.00    -0.205 F 
ATOM      8  C   UNL     1       2.079  -4.493   0.000  0.00  0.00    +0.040 A 
ATOM      9  C   UNL     1       1.197  -5.707   0.000  0.00  0.00    +0.032 A 
ENDBRANCH   2   3
ENDBRANCH  10   1
TORSDOF 3