REMARK  Name = 71948
REMARK  22 active torsions:
REMARK  status: ('A' for Active; 'I' for Inactive)
REMARK    1  A    between atoms: S_1  and  O_2
REMARK    2  A    between atoms: S_1  and  C_5
REMARK    3  A    between atoms: C_7  and  C_10
REMARK    4  A    between atoms: N_12  and  C_15
REMARK    5  A    between atoms: C_14  and  C_16
REMARK    6  A    between atoms: N_23  and  C_25
REMARK    7  A    between atoms: C_24  and  C_26
REMARK    8  A    between atoms: C_31  and  N_32
REMARK    9  A    between atoms: N_32  and  C_33
REMARK   10  A    between atoms: N_32  and  C_34
REMARK   11  A    between atoms: S_35  and  O_36
REMARK   12  A    between atoms: S_35  and  C_39
REMARK   13  A    between atoms: C_41  and  C_44
REMARK   14  A    between atoms: N_46  and  C_49
REMARK   15  A    between atoms: C_48  and  C_50
REMARK   16  A    between atoms: N_57  and  C_59
REMARK   17  A    between atoms: C_58  and  C_60
REMARK   18  A    between atoms: N_67  and  C_69
REMARK   19  A    between atoms: C_68  and  C_70
REMARK   20  A    between atoms: C_75  and  N_76
REMARK   21  A    between atoms: N_76  and  C_77
REMARK   22  A    between atoms: N_76  and  C_78
REMARK                            x       y       z     vdW  Elec       q    Type
REMARK                         _______ _______ _______ _____ _____    ______ ____
ROOT
ATOM      9  C   UNL     1     -19.671  -4.140   0.000  0.00  0.00    +0.055 A 
ATOM     10  C   UNL     1     -19.671  -2.640   0.000  0.00  0.00    +0.021 A 
ATOM     11  C   UNL     1     -18.372  -1.890   0.000  0.00  0.00    +0.080 A 
ATOM     12  C   UNL     1     -17.073  -2.640   0.000  0.00  0.00    +0.222 A 
ATOM     13  N   UNL     1     -15.646  -2.177   0.000  0.00  0.00    -0.187 N 
ATOM     14  C   UNL     1     -14.764  -3.390   0.000  0.00  0.00    +0.255 A 
ATOM     34  S   UNL     1     -15.646  -4.604   0.000  0.00  0.00    -0.014 S 
ATOM     35  C   UNL     1     -15.182  -0.750   0.000  0.00  0.00    +0.440 C 
ATOM     36  C   UNL     1     -17.073  -4.140   0.000  0.00  0.00    +0.090 A 
ATOM     37  C   UNL     1     -18.372  -4.890   0.000  0.00  0.00    +0.036 A 
ENDROOT
BRANCH   9   8
ATOM      2  C   UNL     1     -23.344  -7.993   0.000  0.00  0.00    +0.140 A 
ATOM      3  C   UNL     1     -24.844  -7.993   0.000  0.00  0.00    -0.022 A 
ATOM      4  C   UNL     1     -25.594  -6.694   0.000  0.00  0.00    +0.012 A 
ATOM      5  C   UNL     1     -24.844  -5.395   0.000  0.00  0.00    +0.080 A 
ATOM      6  C   UNL     1     -23.344  -5.395   0.000  0.00  0.00    +0.224 A 
ATOM      7  N   UNL     1     -22.340  -4.280   0.000  0.00  0.00    -0.187 N 
ATOM      8  C   UNL     1     -20.970  -4.890   0.000  0.00  0.00    +0.255 A 
ATOM     38  S   UNL     1     -21.126  -6.382   0.000  0.00  0.00    -0.012 S 
ATOM     39  C   UNL     1     -22.652  -2.813   0.000  0.00  0.00    +0.440 C 
ATOM     40  C   UNL     1     -25.594  -9.292   0.000  0.00  0.00    +0.046 C 
ATOM     41  C   UNL     1     -22.594  -6.694   0.000  0.00  0.00    +0.117 A 
BRANCH   2   1
ATOM      1  S   UNL     1     -22.594  -9.292   0.000  0.00  0.00    +0.111 S 
ATOM     42  O   UNL     1     -23.893 -10.042   0.000  0.00  0.00    -0.142 OA
ATOM     43  O   UNL     1     -21.295  -8.542   0.000  0.00  0.00    -0.142 OA
BRANCH   1  44
ATOM     44  O   UNL     1     -21.844 -10.591   0.000  0.00  0.00    -0.250 OA
ATOM     45  H   UNL     1     -20.344 -10.591   0.000  0.00  0.00    +0.245 HD
ENDBRANCH   1  44
ENDBRANCH   2   1
ENDBRANCH   9   8
BRANCH  14  15
ATOM     15  C   UNL     1     -13.264  -3.390   0.000  0.00  0.00    +0.055 A 
ATOM     16  C   UNL     1     -12.514  -2.091   0.000  0.00  0.00    +0.021 A 
ATOM     17  C   UNL     1     -11.014  -2.091   0.000  0.00  0.00    +0.080 A 
ATOM     18  C   UNL     1     -10.264  -3.390   0.000  0.00  0.00    +0.222 A 
ATOM     19  N   UNL     1      -8.797  -3.702   0.000  0.00  0.00    -0.187 N 
ATOM     20  C   UNL     1      -8.640  -5.194   0.000  0.00  0.00    +0.255 A 
ATOM     30  S   UNL     1     -10.011  -5.804   0.000  0.00  0.00    -0.014 S 
ATOM     31  C   UNL     1      -7.682  -2.698   0.000  0.00  0.00    +0.440 C 
ATOM     32  C   UNL     1     -11.014  -4.689   0.000  0.00  0.00    +0.090 A 
ATOM     33  C   UNL     1     -12.514  -4.689   0.000  0.00  0.00    +0.036 A 
BRANCH  20  21
ATOM     21  C   UNL     1      -7.341  -5.944   0.000  0.00  0.00    +0.054 A 
ATOM     22  C   UNL     1      -6.042  -5.194   0.000  0.00  0.00    +0.017 A 
ATOM     23  C   UNL     1      -4.743  -5.944   0.000  0.00  0.00    +0.024 A 
ATOM     24  C   UNL     1      -4.743  -7.444   0.000  0.00  0.00    +0.029 A 
ATOM     28  C   UNL     1      -6.042  -8.194   0.000  0.00  0.00    +0.024 A 
ATOM     29  C   UNL     1      -7.341  -7.444   0.000  0.00  0.00    +0.017 A 
BRANCH  24  25
ATOM     25  N   UNL     1      -3.444  -8.194   0.000  0.00  0.00    -0.336 N 
ATOM     26  C   UNL     1      -3.444  -9.694   0.000  0.00  0.00    +0.129 C 
ATOM     27  C   UNL     1      -2.145  -7.444   0.000  0.00  0.00    +0.129 C 
ENDBRANCH  24  25
ENDBRANCH  20  21
ENDBRANCH  14  15
TORSDOF 6