REMARK  Name = 616355
REMARK  10 active torsions:
REMARK  status: ('A' for Active; 'I' for Inactive)
REMARK    1  A    between atoms: N_8  and  C_11
REMARK    2  A    between atoms: C_13  and  C_16
REMARK    3  A    between atoms: C_16  and  O_17
REMARK    4  A    between atoms: O_17  and  SI_18
REMARK    5  A    between atoms: SI_18  and  C_19
REMARK    6  A    between atoms: SI_18  and  C_20
REMARK    7  A    between atoms: SI_18  and  C_21
REMARK    8  A    between atoms: C_21  and  C_22
REMARK    9  A    between atoms: C_21  and  C_23
REMARK   10  A    between atoms: C_21  and  C_24
REMARK                            x       y       z     vdW  Elec       q    Type
REMARK                         _______ _______ _______ _____ _____    ______ ____
ROOT
ATOM      5  C   UNL     1      -4.004   8.983   0.000  0.00  0.00    +0.000 C 
ATOM      6  C   UNL     1      -2.578   8.520   0.000  0.00  0.00    +0.000 C 
ATOM      7  C   UNL     1      -2.578   7.019   0.000  0.00  0.00    +0.000 C 
ATOM      8  C   UNL     1      -4.004   6.556   0.000  0.00  0.00    +0.000 C 
ATOM     18  O   UNL     1      -4.886   7.769   0.000  0.00  0.00    +0.000 OA
ENDROOT
BRANCH   5   4
ATOM      1  C   UNL     1      -8.492  10.873   0.000  0.00  0.00    +0.000 A 
ATOM      2  N   UNL     1      -7.193  10.123   0.000  0.00  0.00    +0.000 NA
ATOM      3  C   UNL     1      -5.894  10.873   0.000  0.00  0.00    +0.000 A 
ATOM      4  N   UNL     1      -4.468  10.410   0.000  0.00  0.00    +0.000 N 
ATOM     19  C   UNL     1      -3.586  11.623   0.000  0.00  0.00    +0.000 A 
ATOM     20  N   UNL     1      -4.468  12.837   0.000  0.00  0.00    +0.000 NA
ATOM     21  C   UNL     1      -5.894  12.373   0.000  0.00  0.00    +0.000 A 
ATOM     22  C   UNL     1      -7.193  13.123   0.000  0.00  0.00    +0.000 A 
ATOM     23  N   UNL     1      -7.193  14.623   0.000  0.00  0.00    +0.000 N 
ATOM     24  H   UNL     1      -8.046  15.115   0.000  0.00  0.00    +0.000 HD
ATOM     25  H   UNL     1      -6.341  15.115   0.000  0.00  0.00    +0.000 HD
ATOM     26  N   UNL     1      -8.492  12.373   0.000  0.00  0.00    +0.000 NA
ENDBRANCH   5   4
BRANCH   8   9
ATOM      9  C   UNL     1      -4.468   5.129   0.000  0.00  0.00    +0.000 C 
BRANCH   9  10
ATOM     10  O   UNL     1      -3.464   4.015   0.000  0.00  0.00    +0.000 OA
BRANCH  10  11
ATOM     11 SI   UNL     1      -3.928   2.588   0.000  0.00  0.00    +0.000 Si
ATOM     16  C   UNL     1      -2.501   2.124   0.000  0.00  0.00    +0.000 C 
ATOM     17  C   UNL     1      -5.354   3.052   0.000  0.00  0.00    +0.000 C 
BRANCH  11  12
ATOM     12  C   UNL     1      -4.391   1.161   0.000  0.00  0.00    +0.000 C 
ATOM     13  C   UNL     1      -2.965   0.698   0.000  0.00  0.00    +0.000 C 
ATOM     14  C   UNL     1      -5.818   1.625   0.000  0.00  0.00    +0.000 C 
ATOM     15  C   UNL     1      -4.855  -0.265   0.000  0.00  0.00    +0.000 C 
ENDBRANCH  11  12
ENDBRANCH  10  11
ENDBRANCH   9  10
ENDBRANCH   8   9
TORSDOF 5