REMARK  Name = 662825
REMARK  8 active torsions:
REMARK  status: ('A' for Active; 'I' for Inactive)
REMARK    1  A    between atoms: C_1  and  C_2
REMARK    2  A    between atoms: C_1  and  C_9
REMARK    3  A    between atoms: C_2  and  C_4
REMARK    4  A    between atoms: C_2  and  C_5
REMARK    5  A    between atoms: C_9  and  C_10
REMARK    6  A    between atoms: C_10  and  C_12
REMARK    7  A    between atoms: C_12  and  C_14
REMARK    8  A    between atoms: C_12  and  C_15
REMARK                            x       y       z     vdW  Elec       q    Type
REMARK                         _______ _______ _______ _____ _____    ______ ____
ROOT
ATOM      1  C   UNL     1       2.873   5.123   0.000  0.00  0.00    +0.030 C 
ENDROOT
BRANCH   1   9
ATOM      9  C   UNL     1       4.172   5.873   0.000  0.00  0.00    +0.089 C 
ATOM     15 CL   UNL     1       3.422   7.172   0.000  0.00  0.00    -0.111 Cl
BRANCH   9  10
ATOM     10  C   UNL     1       4.922   4.574   0.000  0.00  0.00    +0.033 C 
ATOM     11 CL   UNL     1       4.172   3.275   0.000  0.00  0.00    -0.087 Cl
ATOM     12  C   UNL     1       6.422   4.574   0.000  0.00  0.00    +0.027 C 
ENDBRANCH   9  10
BRANCH   9  13
ATOM     13  C   UNL     1       5.471   6.623   0.000  0.00  0.00    +0.108 C 
ATOM     14 BR   UNL     1       5.471   8.123   0.000  0.00  0.00    -0.090 Br
ENDBRANCH   9  13
ENDBRANCH   1   9
BRANCH   1   2
ATOM      2  C   UNL     1       1.574   5.873   0.000  0.00  0.00    +0.018 C 
BRANCH   2   3
ATOM      3  C   UNL     1       0.275   5.123   0.000  0.00  0.00    +0.077 C 
ATOM      8 BR   UNL     1       0.275   3.623   0.000  0.00  0.00    -0.086 Br
BRANCH   3   4
ATOM      4  C   UNL     1      -1.025   5.873   0.000  0.00  0.00    +0.052 C 
ATOM      5  C   UNL     1      -1.775   4.574   0.000  0.00  0.00    +0.029 C 
ATOM      6  C   UNL     1      -0.275   7.172   0.000  0.00  0.00    +0.029 C 
ATOM      7 CL   UNL     1      -2.324   6.623   0.000  0.00  0.00    -0.118 Cl
ENDBRANCH   3   4
ENDBRANCH   2   3
ENDBRANCH   1   2
TORSDOF 6