REMARK  Name = 54297
REMARK  1 active torsions:
REMARK  status: ('A' for Active; 'I' for Inactive)
REMARK    1  A    between atoms: C_7  and  C_8
REMARK                            x       y       z     vdW  Elec       q    Type
REMARK                         _______ _______ _______ _____ _____    ______ ____
ROOT
ATOM      1  S   UNL     1      -2.620  -1.034   0.000  0.00  0.00    -0.060 S 
ATOM      2  C   UNL     1      -2.697   0.464   0.000  0.00  0.00    +0.156 A 
ATOM      3  N   UNL     1      -3.954   1.283   0.000  0.00  0.00    -0.338 N 
ATOM      4  H   UNL     1      -4.832   0.837   0.000  0.00  0.00    +0.144 HD
ATOM      5  H   UNL     1      -3.901   2.266   0.000  0.00  0.00    +0.144 HD
ATOM      6  N   UNL     1      -1.296   1.000   0.000  0.00  0.00    -0.225 NA
ATOM      7  C   UNL     1      -0.354  -0.167   0.000  0.00  0.00    +0.087 A 
ATOM     13  C   UNL     1      -1.172  -1.424   0.000  0.00  0.00    +0.077 A 
ENDROOT
BRANCH   7   8
ATOM      8  C   UNL     1       1.144  -0.090   0.000  0.00  0.00    +0.038 A 
ATOM      9  C   UNL     1       2.087  -1.257   0.000  0.00  0.00    +0.017 A 
ATOM     10  C   UNL     1       3.488  -0.721   0.000  0.00  0.00    +0.008 A 
ATOM     11  C   UNL     1       3.411   0.777   0.000  0.00  0.00    +0.046 A 
ATOM     12  S   UNL     1       1.963   1.167   0.000  0.00  0.00    -0.095 S 
ENDBRANCH   7   8
TORSDOF 1