REMARK  Name = 657449
REMARK  4 active torsions:
REMARK  status: ('A' for Active; 'I' for Inactive)
REMARK    1  A    between atoms: C_6  and  C_7
REMARK    2  A    between atoms: C_9  and  N_11
REMARK    3  A    between atoms: N_11  and  C_12
REMARK    4  A    between atoms: C_12  and  N_14
REMARK                            x       y       z     vdW  Elec       q    Type
REMARK                         _______ _______ _______ _____ _____    ______ ____
ROOT
ATOM      1  C   UNL     1       0.275   5.524   0.000  0.00  0.00    +0.093 C 
ATOM      2  C   UNL     1       0.275   4.024   0.000  0.00  0.00    +0.110 C 
ATOM      3  C   UNL     1      -1.025   3.275   0.000  0.00  0.00    +0.086 C 
ATOM      4  O   UNL     1       1.574   3.275   0.000  0.00  0.00    -0.427 OA
ATOM      5  C   UNL     1       2.873   4.024   0.000  0.00  0.00    +0.349 C 
ATOM      6  O   UNL     1       4.172   3.275   0.000  0.00  0.00    -0.244 OA
ATOM      7  C   UNL     1       2.873   5.524   0.000  0.00  0.00    +0.120 C 
ATOM      8  C   UNL     1       4.172   6.274   0.000  0.00  0.00    +0.092 C 
ATOM     16  C   UNL     1       1.574   6.274   0.000  0.00  0.00    +0.197 C 
ATOM     17  O   UNL     1       1.574   7.774   0.000  0.00  0.00    -0.287 OA
ENDROOT
BRANCH   8   9
ATOM      9  N   UNL     1       5.471   5.524   0.000  0.00  0.00    -0.302 N 
ATOM     10  H   UNL     1       5.471   4.540   0.000  0.00  0.00    +0.153 HD
BRANCH   9  11
ATOM     11  C   UNL     1       6.770   6.274   0.000  0.00  0.00    +0.132 C 
ATOM     15  S   UNL     1       6.770   7.774   0.000  0.00  0.00    -0.019 S 
BRANCH  11  12
ATOM     12  N   UNL     1       8.069   5.524   0.000  0.00  0.00    -0.340 N 
ATOM     13  H   UNL     1       8.921   6.017   0.000  0.00  0.00    +0.144 HD
ATOM     14  H   UNL     1       8.069   4.540   0.000  0.00  0.00    +0.144 HD
ENDBRANCH  11  12
ENDBRANCH   9  11
ENDBRANCH   8   9
TORSDOF 3