REMARK  Name = 624158
REMARK  10 active torsions:
REMARK  status: ('A' for Active; 'I' for Inactive)
REMARK    1  A    between atoms: C_2  and  C_17
REMARK    2  A    between atoms: C_3  and  C_5
REMARK    3  A    between atoms: C_5  and  S_6
REMARK    4  A    between atoms: S_6  and  S_7
REMARK    5  A    between atoms: S_7  and  C_10
REMARK    6  A    between atoms: C_13  and  C_14
REMARK    7  A    between atoms: C_17  and  S_18
REMARK    8  A    between atoms: S_18  and  S_19
REMARK    9  A    between atoms: S_19  and  C_22
REMARK   10  A    between atoms: C_25  and  C_26
REMARK                            x       y       z     vdW  Elec       q    Type
REMARK                         _______ _______ _______ _____ _____    ______ ____
ROOT
ATOM      1  C   UNL     1      -3.921   0.446   0.000  0.00  0.00    -0.018 C 
ATOM     14  C   UNL     1      -4.141  -1.038   0.000  0.00  0.00    -0.018 C 
ENDROOT
BRANCH   1   2
ATOM      2  C   UNL     1      -2.526   0.997   0.000  0.00  0.00    +0.120 C 
BRANCH   2   3
ATOM      3  S   UNL     1      -2.305   2.481   0.000  0.00  0.00    +0.006 S 
BRANCH   3   4
ATOM      4  S   UNL     1      -0.910   3.033   0.000  0.00  0.00    +0.049 S 
ATOM     12  O   UNL     1      -0.359   1.637   0.000  0.00  0.00    -0.158 OA
ATOM     13  O   UNL     1      -1.462   4.428   0.000  0.00  0.00    -0.158 OA
BRANCH   4   5
ATOM      5  C   UNL     1       0.485   3.584   0.000  0.00  0.00    +0.100 A 
ATOM      6  C   UNL     1       1.660   2.651   0.000  0.00  0.00    +0.028 A 
ATOM      7  C   UNL     1       3.055   3.203   0.000  0.00  0.00    +0.005 A 
ATOM      8  C   UNL     1       3.275   4.686   0.000  0.00  0.00    -0.050 A 
ATOM      9  C   UNL     1       4.670   5.238   0.000  0.00  0.00    +0.044 C 
ATOM     10  C   UNL     1       2.100   5.619   0.000  0.00  0.00    +0.005 A 
ATOM     11  C   UNL     1       0.705   5.067   0.000  0.00  0.00    +0.028 A 
ENDBRANCH   4   5
ENDBRANCH   3   4
ENDBRANCH   2   3
ENDBRANCH   1   2
BRANCH  14  15
ATOM     15  C   UNL     1      -2.966  -1.970   0.000  0.00  0.00    +0.120 C 
BRANCH  15  16
ATOM     16  S   UNL     1      -1.571  -1.419   0.000  0.00  0.00    +0.006 S 
BRANCH  16  17
ATOM     17  S   UNL     1      -0.396  -2.351   0.000  0.00  0.00    +0.049 S 
ATOM     25  O   UNL     1       0.537  -1.176   0.000  0.00  0.00    -0.158 OA
ATOM     26  O   UNL     1      -1.328  -3.526   0.000  0.00  0.00    -0.158 OA
BRANCH  17  18
ATOM     18  C   UNL     1       0.779  -3.284   0.000  0.00  0.00    +0.100 A 
ATOM     19  C   UNL     1       0.559  -4.768   0.000  0.00  0.00    +0.028 A 
ATOM     20  C   UNL     1       1.734  -5.700   0.000  0.00  0.00    +0.005 A 
ATOM     21  C   UNL     1       3.129  -5.149   0.000  0.00  0.00    -0.050 A 
ATOM     22  C   UNL     1       4.304  -6.081   0.000  0.00  0.00    +0.044 C 
ATOM     23  C   UNL     1       3.349  -3.665   0.000  0.00  0.00    +0.005 A 
ATOM     24  C   UNL     1       2.174  -2.732   0.000  0.00  0.00    +0.028 A 
ENDBRANCH  17  18
ENDBRANCH  16  17
ENDBRANCH  15  16
ENDBRANCH  14  15
TORSDOF 8