REMARK  Name = 640637
REMARK  8 active torsions:
REMARK  status: ('A' for Active; 'I' for Inactive)
REMARK    1  A    between atoms: C_2  and  C_7
REMARK    2  A    between atoms: C_3  and  C_13
REMARK    3  A    between atoms: N_19  and  N_20
REMARK    4  A    between atoms: N_19  and  C_27
REMARK    5  A    between atoms: C_23  and  C_38
REMARK    6  A    between atoms: C_27  and  N_35
REMARK    7  A    between atoms: C_34  and  N_35
REMARK    8  A    between atoms: C_36  and  C_37
REMARK                            x       y       z     vdW  Elec       q    Type
REMARK                         _______ _______ _______ _____ _____    ______ ____
ROOT
ATOM      1  N   UNL     1      -3.148  -8.049   0.000  0.00  0.00    -0.144 NA
ATOM      2  N   UNL     1      -3.148  -6.549   0.000  0.00  0.00    -0.110 NA
ATOM      3  C   UNL     1      -1.849  -5.799   0.000  0.00  0.00    +0.264 A 
ATOM      4  N   UNL     1      -1.849  -4.299   0.000  0.00  0.00    -0.136 N 
ATOM     25  N   UNL     1      -0.550  -6.549   0.000  0.00  0.00    -0.209 NA
ATOM     26  C   UNL     1      -0.550  -8.049   0.000  0.00  0.00    +0.102 A 
ATOM     33  C   UNL     1      -1.849  -8.799   0.000  0.00  0.00    +0.119 A 
ENDROOT
BRANCH  26  27
ATOM     27  C   UNL     1       0.749  -8.799   0.000  0.00  0.00    +0.003 A 
ATOM     28  C   UNL     1       2.048  -8.049   0.000  0.00  0.00    +0.010 A 
ATOM     29  C   UNL     1       3.347  -8.799   0.000  0.00  0.00    +0.001 A 
ATOM     30  C   UNL     1       3.347 -10.299   0.000  0.00  0.00    +0.000 A 
ATOM     31  C   UNL     1       2.048 -11.049   0.000  0.00  0.00    +0.001 A 
ATOM     32  C   UNL     1       0.749 -10.299   0.000  0.00  0.00    +0.010 A 
ENDBRANCH  26  27
BRANCH  33  34
ATOM     34  C   UNL     1      -1.849 -10.299   0.000  0.00  0.00    +0.004 A 
ATOM     35  C   UNL     1      -0.550 -11.049   0.000  0.00  0.00    +0.010 A 
ATOM     36  C   UNL     1      -0.550 -12.549   0.000  0.00  0.00    +0.001 A 
ATOM     37  C   UNL     1      -1.849 -13.299   0.000  0.00  0.00    +0.000 A 
ATOM     38  C   UNL     1      -3.148 -12.549   0.000  0.00  0.00    +0.001 A 
ATOM     39  C   UNL     1      -3.148 -11.049   0.000  0.00  0.00    +0.010 A 
ENDBRANCH  33  34
BRANCH   4   5
ATOM      5  C   UNL     1      -0.550  -3.549   0.000  0.00  0.00    +0.165 C 
ATOM     14  S   UNL     1      -0.550  -2.049   0.000  0.00  0.00    -0.016 S 
BRANCH   5   6
ATOM      6  N   UNL     1       0.749  -4.299   0.000  0.00  0.00    -0.295 N 
ATOM      7  H   UNL     1       0.749  -5.283   0.000  0.00  0.00    +0.154 HD
BRANCH   6   8
ATOM      8  C   UNL     1       2.048  -3.549   0.000  0.00  0.00    +0.033 A 
ATOM      9  C   UNL     1       3.347  -4.299   0.000  0.00  0.00    +0.023 A 
ATOM     10  C   UNL     1       4.646  -3.549   0.000  0.00  0.00    +0.002 A 
ATOM     11  C   UNL     1       4.646  -2.049   0.000  0.00  0.00    +0.000 A 
ATOM     12  C   UNL     1       3.347  -1.299   0.000  0.00  0.00    +0.002 A 
ATOM     13  C   UNL     1       2.048  -2.049   0.000  0.00  0.00    +0.023 A 
ENDBRANCH   6   8
ENDBRANCH   5   6
ENDBRANCH   4   5
BRANCH   4  15
ATOM     15  N   UNL     1      -3.148  -3.549   0.000  0.00  0.00    -0.179 NA
ATOM     16  C   UNL     1      -3.148  -2.049   0.000  0.00  0.00    +0.131 C 
BRANCH  16  17
ATOM     17  C   UNL     1      -4.447  -1.299   0.000  0.00  0.00    +0.022 C 
ATOM     18  C   UNL     1      -4.447   0.201   0.000  0.00  0.00    +0.009 C 
BRANCH  18  19
ATOM     19  C   UNL     1      -5.746   0.951   0.000  0.00  0.00    -0.025 A 
ATOM     20  C   UNL     1      -7.045   0.201   0.000  0.00  0.00    +0.008 A 
ATOM     21  C   UNL     1      -8.344   0.951   0.000  0.00  0.00    +0.001 A 
ATOM     22  C   UNL     1      -8.344   2.451   0.000  0.00  0.00    +0.000 A 
ATOM     23  C   UNL     1      -7.045   3.201   0.000  0.00  0.00    +0.001 A 
ATOM     24  C   UNL     1      -5.746   2.451   0.000  0.00  0.00    +0.008 A 
ENDBRANCH  18  19
ENDBRANCH  16  17
ENDBRANCH   4  15
TORSDOF 8