REMARK  Name = 49451
REMARK  18 active torsions:
REMARK  status: ('A' for Active; 'I' for Inactive)
REMARK    1  A    between atoms: C_5  and  C_6
REMARK    2  A    between atoms: C_5  and  C_8
REMARK    3  A    between atoms: C_5  and  C_28
REMARK    4  A    between atoms: C_5  and  O_31
REMARK    5  A    between atoms: C_6  and  C_35
REMARK    6  A    between atoms: C_9  and  O_32
REMARK    7  A    between atoms: C_10  and  C_29
REMARK    8  A    between atoms: C_13  and  C_30
REMARK    9  A    between atoms: C_14  and  C_27
REMARK   10  A    between atoms: C_18  and  O_24
REMARK   11  A    between atoms: C_23  and  C_25
REMARK   12  A    between atoms: C_23  and  C_26
REMARK   13  A    between atoms: C_36  and  C_37
REMARK   14  A    between atoms: C_37  and  C_38
REMARK   15  A    between atoms: C_37  and  C_39
REMARK   16  A    between atoms: C_37  and  O_40
REMARK   17  A    between atoms: O_40  and  C_41
REMARK   18  A    between atoms: C_41  and  C_43
REMARK                            x       y       z     vdW  Elec       q    Type
REMARK                         _______ _______ _______ _____ _____    ______ ____
ROOT
ATOM      1  O   UNL     1      -1.114   3.429   0.000  0.00  0.00    -0.294 OA
ATOM      2  C   UNL     1       0.185   4.179   0.000  0.00  0.00    +0.171 C 
ATOM      3  C   UNL     1       1.484   3.429   0.000  0.00  0.00    +0.047 C 
ATOM      4  C   UNL     1       2.449   2.280   0.000  0.00  0.00    +0.023 C 
ATOM      5  C   UNL     1       0.520   2.280   0.000  0.00  0.00    +0.023 C 
ATOM      6  C   UNL     1       2.784   4.179   0.000  0.00  0.00    -0.057 C 
ATOM      7  C   UNL     1       4.082   3.429   0.000  0.00  0.00    -0.026 C 
ATOM      8  C   UNL     1       5.382   4.179   0.000  0.00  0.00    +0.032 C 
ATOM      9  C   UNL     1       5.382   5.679   0.000  0.00  0.00    +0.013 C 
ATOM     10  C   UNL     1       4.083   6.429   0.000  0.00  0.00    +0.036 C 
ATOM     11  C   UNL     1       4.082   4.929   0.000  0.00  0.00    +0.020 C 
ATOM     12  C   UNL     1       4.083   7.929   0.000  0.00  0.00    +0.141 C 
ATOM     13  C   UNL     1       5.382   8.679   0.000  0.00  0.00    +0.082 C 
ATOM     14  C   UNL     1       6.681   7.929   0.000  0.00  0.00    -0.011 C 
ATOM     15  C   UNL     1       6.837   9.421   0.000  0.00  0.00    +0.012 C 
ATOM     16  C   UNL     1       8.107   8.392   0.000  0.00  0.00    +0.063 C 
ATOM     17  C   UNL     1       8.989   7.179   0.000  0.00  0.00    +0.122 C 
ATOM     18  C   UNL     1       8.107   5.965   0.000  0.00  0.00    +0.039 C 
ATOM     36  O   UNL     1       2.784   8.679   0.000  0.00  0.00    -0.297 OA
ATOM     37  C   UNL     1       6.681   6.429   0.000  0.00  0.00    -0.020 C 
ATOM     38  C   UNL     1       6.837   4.937   0.000  0.00  0.00    +0.012 C 
ATOM     39  C   UNL     1       2.784   5.679   0.000  0.00  0.00    +0.032 C 
ATOM     40  C   UNL     1       1.484   6.429   0.000  0.00  0.00    +0.048 C 
ATOM     41  C   UNL     1       0.185   5.679   0.000  0.00  0.00    +0.182 C 
ENDROOT
BRANCH  17  19
ATOM     19  O   UNL     1      10.489   7.179   0.000  0.00  0.00    -0.391 OA
ATOM     20  H   UNL     1      10.974   6.339   0.000  0.00  0.00    +0.210 HD
ENDBRANCH  17  19
BRANCH  16  21
ATOM     21  C   UNL     1       7.508  10.794   0.000  0.00  0.00    +0.130 C 
ATOM     35  C   UNL     1       6.053  10.431   0.000  0.00  0.00    +0.050 C 
BRANCH  21  22
ATOM     22  C   UNL     1       8.588  11.836   0.000  0.00  0.00    +0.187 C 
ATOM     32  O   UNL     1       8.225  13.291   0.000  0.00  0.00    -0.290 OA
BRANCH  22  23
ATOM     23  C   UNL     1      10.029  11.422   0.000  0.00  0.00    +0.049 C 
ATOM     24  C   UNL     1      11.108  12.464   0.000  0.00  0.00    +0.023 C 
BRANCH  24  25
ATOM     25  C   UNL     1      12.550  12.051   0.000  0.00  0.00    +0.126 C 
ATOM     30  C   UNL     1      12.964  13.493   0.000  0.00  0.00    +0.060 C 
ATOM     31  C   UNL     1      12.137  10.609   0.000  0.00  0.00    +0.060 C 
BRANCH  25  26
ATOM     26  O   UNL     1      13.992  11.637   0.000  0.00  0.00    -0.455 OA
BRANCH  26  27
ATOM     27  C   UNL     1      15.071  12.679   0.000  0.00  0.00    +0.305 C 
ATOM     28  C   UNL     1      14.708  14.135   0.000  0.00  0.00    +0.136 C 
ATOM     29  O   UNL     1      16.513  12.266   0.000  0.00  0.00    -0.251 OA
ENDBRANCH  26  27
ENDBRANCH  25  26
ENDBRANCH  24  25
ENDBRANCH  22  23
ENDBRANCH  21  22
BRANCH  21  33
ATOM     33  O   UNL     1       6.466  11.873   0.000  0.00  0.00    -0.381 OA
ATOM     34  H   UNL     1       6.734  12.805   0.000  0.00  0.00    +0.211 HD
ENDBRANCH  21  33
ENDBRANCH  16  21
BRANCH  41  42
ATOM     42  O   UNL     1      -1.114   6.429   0.000  0.00  0.00    -0.384 OA
ATOM     43  H   UNL     1      -1.114   7.399   0.000  0.00  0.00    +0.210 HD
ENDBRANCH  41  42
TORSDOF 9