REMARK  Name = 634928
REMARK  10 active torsions:
REMARK  status: ('A' for Active; 'I' for Inactive)
REMARK    1  A    between atoms: C_3  and  O_35
REMARK    2  A    between atoms: C_4  and  C_7
REMARK    3  A    between atoms: C_8  and  C_23
REMARK    4  A    between atoms: C_9  and  C_34
REMARK    5  A    between atoms: C_10  and  C_33
REMARK    6  A    between atoms: C_11  and  C_13
REMARK    7  A    between atoms: N_15  and  C_16
REMARK    8  A    between atoms: C_16  and  C_17
REMARK    9  A    between atoms: N_25  and  C_26
REMARK   10  A    between atoms: C_26  and  C_27
REMARK                            x       y       z     vdW  Elec       q    Type
REMARK                         _______ _______ _______ _____ _____    ______ ____
ROOT
ATOM      5  C   UNL     1      -9.843  -5.250   0.000  0.00  0.00    +0.095 C 
ATOM      6  C   UNL     1      -8.544  -6.000   0.000  0.00  0.00    +0.043 C 
ATOM     18  C   UNL     1      -8.544  -7.500   0.000  0.00  0.00    +0.014 C 
ATOM     19  C   UNL     1      -7.245  -8.250   0.000  0.00  0.00    +0.061 C 
ATOM     20  N   UNL     1      -9.843  -8.250   0.000  0.00  0.00    -0.321 N 
ATOM     21  H   UNL     1      -9.843  -9.234   0.000  0.00  0.00    +0.152 HD
ATOM     22  C   UNL     1     -11.142  -7.500   0.000  0.00  0.00    +0.014 C 
ATOM     23  C   UNL     1     -12.441  -8.250   0.000  0.00  0.00    +0.061 C 
ATOM     24  C   UNL     1     -11.142  -6.000   0.000  0.00  0.00    +0.043 C 
ENDROOT
BRANCH   5   4
ATOM      1  C   UNL     1      -9.843   0.225   0.000  0.00  0.00    +0.004 A 
ATOM      2  C   UNL     1      -8.544  -0.525   0.000  0.00  0.00    +0.001 A 
ATOM      3  C   UNL     1      -8.544  -2.025   0.000  0.00  0.00    +0.008 A 
ATOM      4  C   UNL     1      -9.843  -2.775   0.000  0.00  0.00    +0.006 A 
ATOM     36  C   UNL     1     -11.142  -2.025   0.000  0.00  0.00    +0.121 A 
ATOM     39  C   UNL     1     -11.142  -0.525   0.000  0.00  0.00    +0.046 A 
BRANCH  36  37
ATOM     37  O   UNL     1     -12.441  -2.775   0.000  0.00  0.00    -0.506 OA
ATOM     38  H   UNL     1     -13.253  -2.307   0.000  0.00  0.00    +0.292 HD
ENDBRANCH  36  37
ENDBRANCH   5   4
BRANCH   6   7
ATOM      7  C   UNL     1      -7.245  -5.250   0.000  0.00  0.00    +0.243 C 
ATOM      8  N   UNL     1      -5.946  -6.000   0.000  0.00  0.00    -0.307 N 
ATOM      9  H   UNL     1      -5.946  -6.984   0.000  0.00  0.00    +0.149 HD
ATOM     17  O   UNL     1      -7.245  -3.750   0.000  0.00  0.00    -0.270 OA
BRANCH   8  10
ATOM     10  C   UNL     1      -4.647  -5.250   0.000  0.00  0.00    +0.139 C 
BRANCH  10  11
ATOM     11  C   UNL     1      -3.348  -6.000   0.000  0.00  0.00    -0.030 A 
ATOM     12  C   UNL     1      -2.049  -5.250   0.000  0.00  0.00    +0.005 A 
ATOM     13  C   UNL     1      -0.750  -6.000   0.000  0.00  0.00    +0.000 A 
ATOM     14  C   UNL     1      -0.750  -7.500   0.000  0.00  0.00    +0.000 A 
ATOM     15  C   UNL     1      -2.049  -8.250   0.000  0.00  0.00    +0.000 A 
ATOM     16  C   UNL     1      -3.348  -7.500   0.000  0.00  0.00    +0.005 A 
ENDBRANCH  10  11
ENDBRANCH   8  10
ENDBRANCH   6   7
BRANCH  24  25
ATOM     25  C   UNL     1     -12.441  -5.250   0.000  0.00  0.00    +0.243 C 
ATOM     26  N   UNL     1     -13.740  -6.000   0.000  0.00  0.00    -0.307 N 
ATOM     27  H   UNL     1     -13.740  -6.984   0.000  0.00  0.00    +0.149 HD
ATOM     35  O   UNL     1     -12.441  -3.750   0.000  0.00  0.00    -0.270 OA
BRANCH  26  28
ATOM     28  C   UNL     1     -15.039  -5.250   0.000  0.00  0.00    +0.139 C 
BRANCH  28  29
ATOM     29  C   UNL     1     -16.339  -6.000   0.000  0.00  0.00    -0.030 A 
ATOM     30  C   UNL     1     -17.637  -5.250   0.000  0.00  0.00    +0.005 A 
ATOM     31  C   UNL     1     -18.936  -6.000   0.000  0.00  0.00    +0.000 A 
ATOM     32  C   UNL     1     -18.936  -7.500   0.000  0.00  0.00    +0.000 A 
ATOM     33  C   UNL     1     -17.637  -8.250   0.000  0.00  0.00    +0.000 A 
ATOM     34  C   UNL     1     -16.339  -7.500   0.000  0.00  0.00    +0.005 A 
ENDBRANCH  28  29
ENDBRANCH  26  28
ENDBRANCH  24  25
TORSDOF 8