REMARK  Name = 95580
REMARK  9 active torsions:
REMARK  status: ('A' for Active; 'I' for Inactive)
REMARK    1  A    between atoms: C_1  and  C_5
REMARK    2  A    between atoms: C_3  and  C_7
REMARK    3  A    between atoms: N_6  and  C_14
REMARK    4  A    between atoms: N_8  and  C_9
REMARK    5  A    between atoms: C_9  and  C_10
REMARK    6  A    between atoms: C_10  and  C_11
REMARK    7  A    between atoms: C_11  and  C_12
REMARK    8  A    between atoms: C_12  and  C_13
REMARK    9  A    between atoms: C_13  and  C_14
REMARK                            x       y       z     vdW  Elec       q    Type
REMARK                         _______ _______ _______ _____ _____    ______ ____
ROOT
ATOM      6  C   UNL     1       6.750   4.647   0.000  0.00  0.00    +0.002 C 
ENDROOT
BRANCH   6   5
ATOM      5  C   UNL     1       5.250   4.647   0.000  0.00  0.00    +0.019 C 
BRANCH   5   4
ATOM      4  C   UNL     1       4.500   3.348   0.000  0.00  0.00    +0.104 C 
BRANCH   4   2
ATOM      1  C   UNL     1       2.250   4.647   0.000  0.00  0.00    +0.210 C 
ATOM      2  N   UNL     1       3.000   3.348   0.000  0.00  0.00    -0.316 N 
ATOM      3  H   UNL     1       2.508   2.495   0.000  0.00  0.00    +0.149 HD
ATOM     15  C   UNL     1       0.750   4.647   0.000  0.00  0.00    +0.109 C 
ATOM     16  O   UNL     1       3.000   5.946   0.000  0.00  0.00    -0.276 OA
ENDBRANCH   4   2
ENDBRANCH   5   4
ENDBRANCH   6   5
BRANCH   6   7
ATOM      7  C   UNL     1       7.500   5.946   0.000  0.00  0.00    +0.002 C 
BRANCH   7   8
ATOM      8  C   UNL     1       9.000   5.946   0.000  0.00  0.00    +0.019 C 
BRANCH   8   9
ATOM      9  C   UNL     1       9.750   4.647   0.000  0.00  0.00    +0.104 C 
BRANCH   9  10
ATOM     10  N   UNL     1       9.000   3.348   0.000  0.00  0.00    -0.316 N 
ATOM     11  H   UNL     1       8.016   3.348   0.000  0.00  0.00    +0.149 HD
ATOM     12  C   UNL     1       9.750   2.049   0.000  0.00  0.00    +0.210 C 
ATOM     13  C   UNL     1       9.000   0.750   0.000  0.00  0.00    +0.109 C 
ATOM     14  O   UNL     1      11.250   2.049   0.000  0.00  0.00    -0.276 OA
ENDBRANCH   9  10
ENDBRANCH   8   9
ENDBRANCH   7   8
ENDBRANCH   6   7
TORSDOF 7