REMARK  Name = 654705
REMARK  8 active torsions:
REMARK  status: ('A' for Active; 'I' for Inactive)
REMARK    1  A    between atoms: C_2  and  O_7
REMARK    2  A    between atoms: C_3  and  C_9
REMARK    3  A    between atoms: C_5  and  O_8
REMARK    4  A    between atoms: C_9  and  N_10
REMARK    5  A    between atoms: N_10  and  C_16
REMARK    6  A    between atoms: C_13  and  C_17
REMARK    7  A    between atoms: C_17  and  O_19
REMARK    8  A    between atoms: O_19  and  C_20
REMARK                            x       y       z     vdW  Elec       q    Type
REMARK                         _______ _______ _______ _____ _____    ______ ____
ROOT
ATOM      9  N   UNL     1       4.172   4.774   0.000  0.00  0.00    -0.340 N 
ATOM     10  H   UNL     1       4.172   3.790   0.000  0.00  0.00    +0.146 HD
ENDROOT
BRANCH   9  11
ATOM     11  C   UNL     1       5.471   5.524   0.000  0.00  0.00    +0.027 A 
ATOM     12  C   UNL     1       6.770   4.774   0.000  0.00  0.00    +0.024 A 
ATOM     13  C   UNL     1       8.069   5.524   0.000  0.00  0.00    +0.017 A 
ATOM     14  C   UNL     1       8.069   7.024   0.000  0.00  0.00    +0.059 A 
ATOM     19  C   UNL     1       6.770   7.774   0.000  0.00  0.00    +0.017 A 
ATOM     20  C   UNL     1       5.471   7.024   0.000  0.00  0.00    +0.024 A 
BRANCH  14  15
ATOM     15  C   UNL     1       9.368   7.774   0.000  0.00  0.00    +0.339 C 
ATOM     18  O   UNL     1       9.368   9.274   0.000  0.00  0.00    -0.245 OA
BRANCH  15  16
ATOM     16  O   UNL     1      10.667   7.024   0.000  0.00  0.00    -0.464 OA
ATOM     17  C   UNL     1      11.966   7.774   0.000  0.00  0.00    +0.280 C 
ENDBRANCH  15  16
ENDBRANCH  14  15
ENDBRANCH   9  11
BRANCH   9   8
ATOM      8  C   UNL     1       2.873   5.524   0.000  0.00  0.00    +0.140 C 
BRANCH   8   7
ATOM      1  C   UNL     1      -1.025   4.774   0.000  0.00  0.00    +0.049 A 
ATOM      2  C   UNL     1      -1.025   3.275   0.000  0.00  0.00    +0.049 A 
ATOM      3  C   UNL     1       0.275   2.525   0.000  0.00  0.00    +0.117 A 
ATOM      6  C   UNL     1       1.574   3.275   0.000  0.00  0.00    +0.054 A 
ATOM      7  C   UNL     1       1.574   4.774   0.000  0.00  0.00    +0.014 A 
ATOM     21  C   UNL     1       0.275   5.524   0.000  0.00  0.00    +0.122 A 
BRANCH   3   4
ATOM      4  O   UNL     1       0.275   1.025   0.000  0.00  0.00    -0.507 OA
ATOM      5  H   UNL     1      -0.537   0.556   0.000  0.00  0.00    +0.292 HD
ENDBRANCH   3   4
BRANCH  21  22
ATOM     22  O   UNL     1       0.275   7.024   0.000  0.00  0.00    -0.506 OA
ATOM     23  H   UNL     1       1.086   7.493   0.000  0.00  0.00    +0.292 HD
ENDBRANCH  21  22
ENDBRANCH   8   7
ENDBRANCH   9   8
TORSDOF 7