REMARK  Name = 97911
REMARK  8 active torsions:
REMARK  status: ('A' for Active; 'I' for Inactive)
REMARK    1  A    between atoms: O_1  and  C_6
REMARK    2  A    between atoms: O_1  and  C_10
REMARK    3  A    between atoms: N_2  and  N_20
REMARK    4  A    between atoms: C_4  and  C_18
REMARK    5  A    between atoms: C_12  and  C_15
REMARK    6  A    between atoms: C_15  and  C_17
REMARK    7  A    between atoms: C_18  and  C_19
REMARK    8  A    between atoms: N_24  and  O_26
REMARK                            x       y       z     vdW  Elec       q    Type
REMARK                         _______ _______ _______ _____ _____    ______ ____
ROOT
ATOM      1  N   UNL     1     -12.124  -3.161   0.000  0.00  0.00    +0.282 N 
ATOM      2  O   UNL     1     -10.825  -3.911   0.000  0.00  0.00    -0.534 OA
ATOM      5  O   UNL     1     -13.423  -3.911   0.000  0.00  0.00    +0.093 OA
ENDROOT
BRANCH   1   3
ATOM      3  O   UNL     1     -12.124  -1.661   0.000  0.00  0.00    -0.231 OA
ATOM      4  H   UNL     1     -11.312  -1.192   0.000  0.00  0.00    +0.390 HD
ENDBRANCH   1   3
TORSDOF 1