REMARK  Name = 48151
REMARK  15 active torsions:
REMARK  status: ('A' for Active; 'I' for Inactive)
REMARK    1  A    between atoms: C_6  and  N_25
REMARK    2  A    between atoms: C_7  and  O_31
REMARK    3  A    between atoms: C_9  and  C_26
REMARK    4  A    between atoms: C_12  and  C_27
REMARK    5  A    between atoms: C_13  and  O_19
REMARK    6  A    between atoms: C_14  and  C_24
REMARK    7  A    between atoms: C_18  and  C_20
REMARK    8  A    between atoms: C_20  and  C_21
REMARK    9  A    between atoms: C_20  and  C_22
REMARK   10  A    between atoms: C_20  and  C_23
REMARK   11  A    between atoms: C_24  and  N_25
REMARK   12  A    between atoms: N_25  and  C_26
REMARK   13  A    between atoms: C_27  and  C_28
REMARK   14  A    between atoms: C_27  and  C_29
REMARK   15  A    between atoms: C_27  and  C_30
REMARK                            x       y       z     vdW  Elec       q    Type
REMARK                         _______ _______ _______ _____ _____    ______ ____
ROOT
ATOM      5  N   UNL     1       8.169  -3.650   0.000  0.00  0.00    -0.291 NA
ENDROOT
BRANCH   5   4
ATOM      1  C   UNL     1       8.169   0.851   0.000  0.00  0.00    +0.000 C 
ATOM      2  C   UNL     1       9.468   0.101   0.000  0.00  0.00    +0.002 C 
ATOM      3  C   UNL     1       9.468  -1.400   0.000  0.00  0.00    +0.019 C 
ATOM      4  C   UNL     1       8.169  -2.150   0.000  0.00  0.00    +0.057 C 
ATOM     32  C   UNL     1       6.870  -1.400   0.000  0.00  0.00    +0.019 C 
ATOM     33  C   UNL     1       6.870   0.101   0.000  0.00  0.00    +0.002 C 
ENDBRANCH   5   4
BRANCH   5   6
ATOM      6  C   UNL     1       6.870  -4.399   0.000  0.00  0.00    +0.124 C 
BRANCH   6   7
ATOM      7  C   UNL     1       5.571  -3.650   0.000  0.00  0.00    +0.008 A 
ATOM      8  C   UNL     1       5.571  -2.150   0.000  0.00  0.00    +0.012 A 
ATOM      9  C   UNL     1       4.272  -1.400   0.000  0.00  0.00    -0.041 A 
ATOM     14  C   UNL     1       2.973  -2.150   0.000  0.00  0.00    +0.008 A 
ATOM     15  C   UNL     1       2.973  -3.650   0.000  0.00  0.00    +0.046 A 
ATOM     16  C   UNL     1       4.272  -4.399   0.000  0.00  0.00    +0.121 A 
BRANCH   9  10
ATOM     10  C   UNL     1       4.272   0.101   0.000  0.00  0.00    -0.013 C 
ATOM     11  C   UNL     1       2.772   0.101   0.000  0.00  0.00    +0.015 C 
ATOM     12  C   UNL     1       4.272   1.601   0.000  0.00  0.00    +0.015 C 
ATOM     13  C   UNL     1       5.772   0.101   0.000  0.00  0.00    +0.015 C 
ENDBRANCH   9  10
BRANCH  16  17
ATOM     17  O   UNL     1       4.272  -5.899   0.000  0.00  0.00    -0.506 OA
ATOM     18  H   UNL     1       3.461  -6.368   0.000  0.00  0.00    +0.292 HD
ENDBRANCH  16  17
ENDBRANCH   6   7
ENDBRANCH   5   6
BRANCH   5  19
ATOM     19  C   UNL     1       9.468  -4.399   0.000  0.00  0.00    +0.124 C 
BRANCH  19  20
ATOM     20  C   UNL     1       9.468  -5.899   0.000  0.00  0.00    +0.008 A 
ATOM     21  C   UNL     1      10.767  -6.649   0.000  0.00  0.00    +0.012 A 
ATOM     22  C   UNL     1      10.767  -8.149   0.000  0.00  0.00    -0.041 A 
ATOM     27  C   UNL     1       9.468  -8.899   0.000  0.00  0.00    +0.008 A 
ATOM     28  C   UNL     1       8.169  -8.149   0.000  0.00  0.00    +0.046 A 
ATOM     29  C   UNL     1       8.169  -6.649   0.000  0.00  0.00    +0.121 A 
BRANCH  22  23
ATOM     23  C   UNL     1      12.066  -8.899   0.000  0.00  0.00    -0.013 C 
ATOM     24  C   UNL     1      12.816  -7.600   0.000  0.00  0.00    +0.015 C 
ATOM     25  C   UNL     1      13.365  -9.649   0.000  0.00  0.00    +0.015 C 
ATOM     26  C   UNL     1      11.316 -10.198   0.000  0.00  0.00    +0.015 C 
ENDBRANCH  22  23
BRANCH  29  30
ATOM     30  O   UNL     1       6.870  -5.899   0.000  0.00  0.00    -0.506 OA
ATOM     31  H   UNL     1       6.870  -4.963   0.000  0.00  0.00    +0.292 HD
ENDBRANCH  29  30
ENDBRANCH  19  20
ENDBRANCH   5  19
TORSDOF 9