REMARK  Name = 650573
REMARK  2 active torsions:
REMARK  status: ('A' for Active; 'I' for Inactive)
REMARK    1  A    between atoms: C_13  and  C_22
REMARK    2  A    between atoms: N_15  and  C_16
REMARK                            x       y       z     vdW  Elec       q    Type
REMARK                         _______ _______ _______ _____ _____    ______ ____
ROOT
ATOM      1  C   UNL     1      -0.375   8.149   0.000  0.00  0.00    +0.001 A 
ATOM      2  C   UNL     1       0.924   8.899   0.000  0.00  0.00    +0.012 A 
ATOM      3  C   UNL     1       2.223   8.149   0.000  0.00  0.00    +0.035 A 
ATOM      4  C   UNL     1       3.522   8.899   0.000  0.00  0.00    +0.231 C 
ATOM      5  C   UNL     1       4.821   8.149   0.000  0.00  0.00    +0.204 A 
ATOM      6  O   UNL     1       6.248   8.613   0.000  0.00  0.00    -0.436 OA
ATOM      7  C   UNL     1       7.129   7.399   0.000  0.00  0.00    +0.194 A 
ATOM      8  C   UNL     1       8.629   7.399   0.000  0.00  0.00    +0.109 C 
ATOM      9  N   UNL     1       6.248   6.186   0.000  0.00  0.00    -0.211 NA
ATOM     10  C   UNL     1       4.821   6.649   0.000  0.00  0.00    +0.139 A 
ATOM     11  C   UNL     1       3.522   5.899   0.000  0.00  0.00    +0.101 C 
ATOM     12  N   UNL     1       3.522   4.399   0.000  0.00  0.00    -0.245 NA
ATOM     19  O   UNL     1       3.522  10.400   0.000  0.00  0.00    -0.283 OA
ATOM     20  C   UNL     1       2.223   6.649   0.000  0.00  0.00    +0.013 A 
ATOM     21  C   UNL     1       0.924   5.899   0.000  0.00  0.00    +0.011 A 
ATOM     22  C   UNL     1      -0.375   6.649   0.000  0.00  0.00    +0.001 A 
ENDROOT
BRANCH  12  13
ATOM     13  C   UNL     1       2.223   3.650   0.000  0.00  0.00    +0.065 A 
ATOM     14  C   UNL     1       2.223   2.150   0.000  0.00  0.00    +0.028 A 
ATOM     15  C   UNL     1       0.924   1.400   0.000  0.00  0.00    +0.002 A 
ATOM     16  C   UNL     1      -0.375   2.150   0.000  0.00  0.00    +0.000 A 
ATOM     17  C   UNL     1      -0.375   3.650   0.000  0.00  0.00    +0.002 A 
ATOM     18  C   UNL     1       0.924   4.399   0.000  0.00  0.00    +0.028 A 
ENDBRANCH  12  13
TORSDOF 1