REMARK  Name = 631521
REMARK  1 active torsions:
REMARK  status: ('A' for Active; 'I' for Inactive)
REMARK    1  A    between atoms: N_16  and  C_17
REMARK                            x       y       z     vdW  Elec       q    Type
REMARK                         _______ _______ _______ _____ _____    ______ ____
ROOT
ATOM      1  C   UNL     1       1.674   1.400   0.000  0.00  0.00    +0.001 A 
ATOM      2  C   UNL     1       1.674  -0.101   0.000  0.00  0.00    +0.001 A 
ATOM      3  C   UNL     1       2.973  -0.851   0.000  0.00  0.00    +0.012 A 
ATOM      4  C   UNL     1       4.272  -0.101   0.000  0.00  0.00    +0.035 A 
ATOM      5  C   UNL     1       5.571  -0.851   0.000  0.00  0.00    +0.213 C 
ATOM      6  O   UNL     1       5.571  -2.350   0.000  0.00  0.00    -0.285 OA
ATOM      7  C   UNL     1       6.870  -0.101   0.000  0.00  0.00    +0.131 A 
ATOM      8  N   UNL     1       8.297  -0.564   0.000  0.00  0.00    -0.221 NA
ATOM      9  C   UNL     1       9.178   0.649   0.000  0.00  0.00    +0.164 A 
ATOM     10  N   UNL     1      10.679   0.649   0.000  0.00  0.00    -0.294 N 
ATOM     11  H   UNL     1      11.171   1.502   0.000  0.00  0.00    +0.154 HD
ATOM     20  S   UNL     1       8.297   1.863   0.000  0.00  0.00    -0.048 S 
ATOM     21  C   UNL     1       6.870   1.400   0.000  0.00  0.00    +0.092 A 
ATOM     22  C   UNL     1       5.571   2.150   0.000  0.00  0.00    +0.203 C 
ATOM     23  O   UNL     1       5.571   3.650   0.000  0.00  0.00    -0.286 OA
ATOM     24  C   UNL     1       4.272   1.400   0.000  0.00  0.00    +0.034 A 
ATOM     25  C   UNL     1       2.973   2.150   0.000  0.00  0.00    +0.012 A 
ENDROOT
BRANCH  10  12
ATOM     12  C   UNL     1      11.429  -0.649   0.000  0.00  0.00    +0.034 A 
ATOM     13  C   UNL     1      10.679  -1.949   0.000  0.00  0.00    +0.025 A 
ATOM     14  C   UNL     1      11.429  -3.248   0.000  0.00  0.00    +0.023 A 
ATOM     15  C   UNL     1      12.929  -3.248   0.000  0.00  0.00    +0.059 A 
ATOM     16 CL   UNL     1      13.679  -4.547   0.000  0.00  0.00    -0.082 Cl
ATOM     17  C   UNL     1      13.679  -1.948   0.000  0.00  0.00    +0.061 A 
ATOM     18 CL   UNL     1      15.179  -1.948   0.000  0.00  0.00    -0.082 Cl
ATOM     19  C   UNL     1      12.929  -0.649   0.000  0.00  0.00    +0.044 A 
ENDBRANCH  10  12
TORSDOF 1