REMARK  Name = 639828
REMARK  5 active torsions:
REMARK  status: ('A' for Active; 'I' for Inactive)
REMARK    1  A    between atoms: C_2  and  N_28
REMARK    2  A    between atoms: C_3  and  C_7
REMARK    3  A    between atoms: N_12  and  C_13
REMARK    4  A    between atoms: C_16  and  O_20
REMARK    5  A    between atoms: O_20  and  C_21
REMARK                            x       y       z     vdW  Elec       q    Type
REMARK                         _______ _______ _______ _____ _____    ______ ____
ROOT
ATOM      6  C   UNL     1       5.250   5.946   0.000  0.00  0.00    +0.253 C 
ATOM      7  N   UNL     1       6.000   4.647   0.000  0.00  0.00    -0.236 N 
ATOM      8  H   UNL     1       5.508   3.795   0.000  0.00  0.00    +0.159 HD
ATOM      9  C   UNL     1       7.500   4.647   0.000  0.00  0.00    +0.310 C 
ATOM     10  N   UNL     1       8.250   3.348   0.000  0.00  0.00    -0.269 N 
ATOM     11  H   UNL     1       7.758   2.495   0.000  0.00  0.00    +0.156 HD
ATOM     27  O   UNL     1       8.250   5.946   0.000  0.00  0.00    -0.252 OA
ATOM     28  O   UNL     1       6.000   7.245   0.000  0.00  0.00    -0.270 OA
ENDROOT
BRANCH  10  12
ATOM     12  C   UNL     1       9.750   3.348   0.000  0.00  0.00    +0.036 A 
ATOM     13  C   UNL     1      10.500   2.049   0.000  0.00  0.00    +0.047 A 
ATOM     14  C   UNL     1      12.000   2.049   0.000  0.00  0.00    +0.085 A 
ATOM     15 CL   UNL     1      12.750   0.750   0.000  0.00  0.00    -0.080 Cl
ATOM     16  C   UNL     1      12.750   3.348   0.000  0.00  0.00    +0.150 A 
ATOM     25  C   UNL     1      12.000   4.647   0.000  0.00  0.00    +0.050 A 
ATOM     26  C   UNL     1      10.500   4.647   0.000  0.00  0.00    +0.027 A 
BRANCH  16  17
ATOM     17  O   UNL     1      14.250   3.348   0.000  0.00  0.00    -0.422 OA
BRANCH  17  18
ATOM     18  C   UNL     1      15.000   4.647   0.000  0.00  0.00    +0.323 A 
ATOM     19  N   UNL     1      16.500   4.647   0.000  0.00  0.00    -0.202 NA
ATOM     20  C   UNL     1      17.250   5.946   0.000  0.00  0.00    +0.133 A 
ATOM     21  C   UNL     1      16.500   7.245   0.000  0.00  0.00    +0.054 A 
ATOM     22 BR   UNL     1      17.250   8.544   0.000  0.00  0.00    -0.047 Br
ATOM     23  C   UNL     1      15.000   7.245   0.000  0.00  0.00    +0.133 A 
ATOM     24  N   UNL     1      14.250   5.946   0.000  0.00  0.00    -0.202 NA
ENDBRANCH  17  18
ENDBRANCH  16  17
ENDBRANCH  10  12
BRANCH   6   5
ATOM      1  C   UNL     1       1.500   4.647   0.000  0.00  0.00    +0.023 A 
ATOM      2  C   UNL     1       0.750   5.946   0.000  0.00  0.00    +0.002 A 
ATOM      3  C   UNL     1       1.500   7.245   0.000  0.00  0.00    +0.001 A 
ATOM      4  C   UNL     1       3.000   7.245   0.000  0.00  0.00    +0.015 A 
ATOM      5  C   UNL     1       3.750   5.946   0.000  0.00  0.00    +0.058 A 
ATOM     29  C   UNL     1       3.000   4.647   0.000  0.00  0.00    +0.037 A 
BRANCH  29  30
ATOM     30  N   UNL     1       3.750   3.348   0.000  0.00  0.00    -0.357 N 
ATOM     31  H   UNL     1       4.734   3.348   0.000  0.00  0.00    +0.142 HD
ATOM     32  H   UNL     1       3.258   2.495   0.000  0.00  0.00    +0.142 HD
ENDBRANCH  29  30
ENDBRANCH   6   5
TORSDOF 5