REMARK  Name = 63446
REMARK  2 active torsions:
REMARK  status: ('A' for Active; 'I' for Inactive)
REMARK    1  A    between atoms: C_6  and  S_13
REMARK    2  A    between atoms: C_12  and  S_13
REMARK                            x       y       z     vdW  Elec       q    Type
REMARK                         _______ _______ _______ _____ _____    ______ ____
ROOT
ATOM      1  N   UNL     1       0.834  -5.931   0.000  0.00  0.00    -0.194 NA
ATOM      2  C   UNL     1       1.298  -7.358   0.000  0.00  0.00    +0.216 A 
ATOM      3  N   UNL     1       0.294  -8.473   0.000  0.00  0.00    -0.327 N 
ATOM      4  H   UNL     1       0.598  -9.409   0.000  0.00  0.00    +0.145 HD
ATOM      5  H   UNL     1      -0.669  -8.268   0.000  0.00  0.00    +0.145 HD
ATOM      6  N   UNL     1       2.765  -7.670   0.000  0.00  0.00    -0.193 NA
ATOM      7  C   UNL     1       3.769  -6.555   0.000  0.00  0.00    +0.184 A 
ATOM      8  C   UNL     1       3.305  -5.129   0.000  0.00  0.00    +0.129 A 
ATOM      9  N   UNL     1       4.519  -4.247   0.000  0.00  0.00    -0.340 N 
ATOM     10  C   UNL     1       5.732  -5.129   0.000  0.00  0.00    +0.199 A 
ATOM     11  H   UNL     1       4.519  -2.747   0.000  0.00  0.00    +0.167 HD
ATOM     12  N   UNL     1       5.269  -6.555   0.000  0.00  0.00    -0.216 NA
ATOM     13  C   UNL     1       1.838  -4.817   0.000  0.00  0.00    +0.206 A 
ENDROOT
BRANCH  13  14
ATOM     14  S   UNL     1       1.374  -3.390   0.000  0.00  0.00    +0.013 S 
ATOM     15  O   UNL     1       2.801  -2.927   0.000  0.00  0.00    -0.168 OA
ATOM     16  O   UNL     1       0.911  -1.964   0.000  0.00  0.00    -0.168 OA
ATOM     17  C   UNL     1      -0.052  -3.854   0.000  0.00  0.00    +0.202 C 
ENDBRANCH  13  14
TORSDOF 1