REMARK  Name = 705330
REMARK  9 active torsions:
REMARK  status: ('A' for Active; 'I' for Inactive)
REMARK    1  A    between atoms: C_2  and  C_8
REMARK    2  A    between atoms: N_3  and  C_4
REMARK    3  A    between atoms: N_3  and  C_12
REMARK    4  A    between atoms: C_4  and  C_5
REMARK    5  A    between atoms: C_4  and  C_9
REMARK    6  A    between atoms: C_4  and  C_10
REMARK    7  A    between atoms: S_6  and  C_7
REMARK    8  A    between atoms: S_6  and  C_22
REMARK    9  A    between atoms: C_12  and  C_13
REMARK                            x       y       z     vdW  Elec       q    Type
REMARK                         _______ _______ _______ _____ _____    ______ ____
ROOT
ATOM      1  O   UNL     1      -0.326   9.936   0.000  0.00  0.00    -0.271 OA
ATOM      2  C   UNL     1      -0.326   8.436   0.000  0.00  0.00    +0.241 C 
ATOM     13  N   UNL     1       0.974   7.686   0.000  0.00  0.00    -0.289 N 
ENDROOT
BRANCH  13  24
ATOM     24  C   UNL     1       2.273   8.436   0.000  0.00  0.00    +0.030 C 
ATOM     25  C   UNL     1       3.572   9.186   0.000  0.00  0.00    +0.031 C 
ATOM     26  C   UNL     1       3.572   7.686   0.000  0.00  0.00    +0.031 C 
ATOM     27  C   UNL     1       2.273   9.936   0.000  0.00  0.00    +0.031 C 
ENDBRANCH  13  24
BRANCH   2   3
ATOM      3  C   UNL     1      -1.625   7.686   0.000  0.00  0.00    +0.077 C 
ATOM      4  C   UNL     1      -2.924   8.436   0.000  0.00  0.00    +0.084 C 
BRANCH   4   5
ATOM      5  S   UNL     1      -2.924   9.936   0.000  0.00  0.00    +0.078 S 
ATOM      6  O   UNL     1      -1.625  10.686   0.000  0.00  0.00    -0.248 OA
BRANCH   5   7
ATOM      7  C   UNL     1      -4.223  10.686   0.000  0.00  0.00    +0.043 A 
ATOM      8  C   UNL     1      -5.522   9.936   0.000  0.00  0.00    +0.017 A 
ATOM      9  C   UNL     1      -6.821  10.686   0.000  0.00  0.00    +0.001 A 
ATOM     10  C   UNL     1      -6.821  12.186   0.000  0.00  0.00    +0.000 A 
ATOM     11  C   UNL     1      -5.522  12.936   0.000  0.00  0.00    +0.001 A 
ATOM     12  C   UNL     1      -4.223  12.186   0.000  0.00  0.00    +0.017 A 
ENDBRANCH   5   7
ENDBRANCH   4   5
ENDBRANCH   2   3
BRANCH  13  14
ATOM     14  C   UNL     1       0.974   6.186   0.000  0.00  0.00    +0.143 C 
BRANCH  14  15
ATOM     15  C   UNL     1      -0.326   5.436   0.000  0.00  0.00    -0.026 A 
ATOM     16  C   UNL     1      -0.326   3.936   0.000  0.00  0.00    +0.009 A 
ATOM     17  C   UNL     1      -1.625   3.186   0.000  0.00  0.00    +0.050 A 
ATOM     18  C   UNL     1      -2.924   3.936   0.000  0.00  0.00    +0.166 A 
ATOM     19  O   UNL     1      -4.350   3.473   0.000  0.00  0.00    -0.453 OA
ATOM     20  C   UNL     1      -5.232   4.686   0.000  0.00  0.00    +0.466 C 
ATOM     21  O   UNL     1      -4.350   5.900   0.000  0.00  0.00    -0.453 OA
ATOM     22  C   UNL     1      -2.924   5.436   0.000  0.00  0.00    +0.167 A 
ATOM     23  C   UNL     1      -1.625   6.186   0.000  0.00  0.00    +0.054 A 
ENDBRANCH  14  15
ENDBRANCH  13  14
TORSDOF 6