REMARK  Name = 605756
REMARK  2 active torsions:
REMARK  status: ('A' for Active; 'I' for Inactive)
REMARK    1  A    between atoms: C_3  and  N_16
REMARK    2  A    between atoms: C_12  and  N_15
REMARK                            x       y       z     vdW  Elec       q    Type
REMARK                         _______ _______ _______ _____ _____    ______ ____
ROOT
ATOM      1 CL   UNL     1       5.946   5.250   0.000  0.00  0.00    -0.145 Cl
ATOM      2  H   UNL     1       7.276   5.250   0.000  0.00  0.00    +0.145 HD
ENDROOT
TORSDOF 0