REMARK  Name = 85700
REMARK  5 active torsions:
REMARK  status: ('A' for Active; 'I' for Inactive)
REMARK    1  A    between atoms: C_3  and  C_11
REMARK    2  A    between atoms: C_6  and  O_13
REMARK    3  A    between atoms: C_12  and  C_14
REMARK    4  A    between atoms: N_15  and  C_24
REMARK    5  A    between atoms: C_22  and  C_25
REMARK                            x       y       z     vdW  Elec       q    Type
REMARK                         _______ _______ _______ _____ _____    ______ ____
ROOT
ATOM      1  I   UNL     1       7.895   7.500   0.000  0.00  0.00    +0.000 I 
ENDROOT
TORSDOF 0