REMARK  Name = 644794
REMARK  7 active torsions:
REMARK  status: ('A' for Active; 'I' for Inactive)
REMARK    1  A    between atoms: C_1  and  C_11
REMARK    2  A    between atoms: C_11  and  C_12
REMARK    3  A    between atoms: C_11  and  C_20
REMARK    4  A    between atoms: C_12  and  C_14
REMARK    5  A    between atoms: C_20  and  C_22
REMARK    6  A    between atoms: N_24  and  C_25
REMARK    7  A    between atoms: C_30  and  C_33
REMARK                            x       y       z     vdW  Elec       q    Type
REMARK                         _______ _______ _______ _____ _____    ______ ____
ROOT
ATOM      2  C   UNL     1       7.185   8.403   0.000  0.00  0.00    +0.181 C 
ENDROOT
BRANCH   2   1
ATOM      1  C   UNL     1       6.722   9.829   0.000  0.00  0.00    +0.226 C 
ATOM     29  O   UNL     1       7.604  11.043   0.000  0.00  0.00    -0.452 OA
ATOM     30  C   UNL     1       6.722  12.257   0.000  0.00  0.00    +0.340 C 
ATOM     31  O   UNL     1       7.185  13.683   0.000  0.00  0.00    -0.245 OA
ATOM     32  C   UNL     1       5.295  11.793   0.000  0.00  0.00    +0.066 A 
ATOM     33  C   UNL     1       3.996  12.543   0.000  0.00  0.00    +0.015 A 
ATOM     34  C   UNL     1       2.697  11.793   0.000  0.00  0.00    +0.001 A 
ATOM     35  C   UNL     1       2.697  10.293   0.000  0.00  0.00    +0.000 A 
ATOM     36  C   UNL     1       3.996   9.543   0.000  0.00  0.00    +0.008 A 
ATOM     37  C   UNL     1       5.295  10.293   0.000  0.00  0.00    +0.008 A 
ENDBRANCH   2   1
BRANCH   2   3
ATOM      3  C   UNL     1       6.182   7.288   0.000  0.00  0.00    +0.232 C 
ATOM     18  O   UNL     1       4.715   7.600   0.000  0.00  0.00    -0.286 OA
BRANCH   3   4
ATOM      4  C   UNL     1       6.645   5.862   0.000  0.00  0.00    +0.285 C 
ATOM      5  N   UNL     1       5.642   4.747   0.000  0.00  0.00    -0.279 N 
ATOM      6  H   UNL     1       5.946   3.811   0.000  0.00  0.00    +0.155 HD
ATOM     17  O   UNL     1       8.113   5.550   0.000  0.00  0.00    -0.267 OA
BRANCH   5   7
ATOM      7  C   UNL     1       4.174   5.059   0.000  0.00  0.00    +0.034 A 
ATOM      8  C   UNL     1       3.711   6.485   0.000  0.00  0.00    +0.023 A 
ATOM      9  C   UNL     1       2.244   6.797   0.000  0.00  0.00    +0.002 A 
ATOM     10  C   UNL     1       1.240   5.683   0.000  0.00  0.00    +0.012 A 
ATOM     11  C   UNL     1       1.703   4.256   0.000  0.00  0.00    +0.057 A 
ATOM     16  C   UNL     1       3.171   3.944   0.000  0.00  0.00    +0.035 A 
BRANCH  11  12
ATOM     12  C   UNL     1       0.700   3.141   0.000  0.00  0.00    +0.417 C 
ATOM     13  F   UNL     1      -0.415   4.145   0.000  0.00  0.00    -0.166 F 
ATOM     14  F   UNL     1       1.814   2.138   0.000  0.00  0.00    -0.166 F 
ATOM     15  F   UNL     1      -0.304   2.027   0.000  0.00  0.00    -0.166 F 
ENDBRANCH  11  12
ENDBRANCH   5   7
ENDBRANCH   3   4
ENDBRANCH   2   3
BRANCH   2  19
ATOM     19  C   UNL     1       8.653   8.091   0.000  0.00  0.00    +0.178 C 
ATOM     28  O   UNL     1       9.116   6.665   0.000  0.00  0.00    -0.291 OA
BRANCH  19  20
ATOM     20  C   UNL     1       9.656   9.206   0.000  0.00  0.00    +0.020 A 
ATOM     21  C   UNL     1      11.124   8.894   0.000  0.00  0.00    +0.013 A 
ATOM     22  C   UNL     1      12.127  10.009   0.000  0.00  0.00    +0.022 A 
ATOM     23  C   UNL     1      11.664  11.435   0.000  0.00  0.00    +0.059 A 
ATOM     24 CL   UNL     1      12.667  12.550   0.000  0.00  0.00    -0.082 Cl
ATOM     25  C   UNL     1      10.197  11.747   0.000  0.00  0.00    +0.060 A 
ATOM     26 CL   UNL     1       9.733  13.174   0.000  0.00  0.00    -0.082 Cl
ATOM     27  C   UNL     1       9.193  10.632   0.000  0.00  0.00    +0.032 A 
ENDBRANCH  19  20
ENDBRANCH   2  19
TORSDOF 7