REMARK  Name = 663996
REMARK  3 active torsions:
REMARK  status: ('A' for Active; 'I' for Inactive)
REMARK    1  A    between atoms: C_1  and  N_13
REMARK    2  A    between atoms: C_4  and  O_11
REMARK    3  A    between atoms: O_11  and  C_12
REMARK                            x       y       z     vdW  Elec       q    Type
REMARK                         _______ _______ _______ _____ _____    ______ ____
ROOT
ATOM      1  C   UNL     1       5.722   5.250   0.000  0.00  0.00    +0.039 A 
ATOM      9  C   UNL     1       5.722   3.750   0.000  0.00  0.00    -0.019 A 
ATOM     10  C   UNL     1       4.423   3.000   0.000  0.00  0.00    +0.037 C 
ATOM     11  C   UNL     1       4.423   1.500   0.000  0.00  0.00    +0.005 C 
ATOM     12  C   UNL     1       5.722   0.750   0.000  0.00  0.00    +0.005 C 
ATOM     13  C   UNL     1       7.021   1.500   0.000  0.00  0.00    +0.039 C 
ATOM     14  C   UNL     1       7.021   3.000   0.000  0.00  0.00    -0.001 A 
ATOM     15  C   UNL     1       8.320   3.750   0.000  0.00  0.00    +0.124 A 
ATOM     18  C   UNL     1       8.320   5.250   0.000  0.00  0.00    +0.048 A 
ATOM     19  C   UNL     1       7.021   6.000   0.000  0.00  0.00    +0.027 A 
ENDROOT
BRANCH   1   2
ATOM      2  N   UNL     1       4.423   6.000   0.000  0.00  0.00    -0.269 N 
ATOM      3  H   UNL     1       4.423   6.984   0.000  0.00  0.00    +0.157 HD
ATOM      4  C   UNL     1       3.124   5.250   0.000  0.00  0.00    +0.282 C 
ATOM      5  O   UNL     1       1.754   5.860   0.000  0.00  0.00    -0.464 OA
ATOM      6  C   UNL     1       0.750   4.745   0.000  0.00  0.00    +0.255 C 
ATOM      7  C   UNL     1       1.500   3.446   0.000  0.00  0.00    +0.187 C 
ATOM      8  N   UNL     1       2.967   3.758   0.000  0.00  0.00    -0.233 NA
ENDBRANCH   1   2
BRANCH  15  16
ATOM     16  O   UNL     1       9.619   3.000   0.000  0.00  0.00    -0.495 OA
ATOM     17  C   UNL     1      10.918   3.750   0.000  0.00  0.00    +0.277 C 
ENDBRANCH  15  16
TORSDOF 2