REMARK  Name = 7833
REMARK  2 active torsions:
REMARK  status: ('A' for Active; 'I' for Inactive)
REMARK    1  A    between atoms: C_1  and  N_17
REMARK    2  A    between atoms: C_12  and  N_18
REMARK                            x       y       z     vdW  Elec       q    Type
REMARK                         _______ _______ _______ _____ _____    ______ ____
ROOT
ATOM      1  C   UNL     1      -2.049  -2.250   0.000  0.00  0.00    +0.036 A 
ATOM      5  C   UNL     1      -3.348  -3.000   0.000  0.00  0.00    +0.055 A 
ATOM      6  C   UNL     1      -3.348  -4.500   0.000  0.00  0.00    +0.055 A 
ATOM      7  C   UNL     1      -4.647  -5.250   0.000  0.00  0.00    +0.196 C 
ATOM      8  O   UNL     1      -4.647  -6.750   0.000  0.00  0.00    -0.287 OA
ATOM      9  C   UNL     1      -5.946  -4.500   0.000  0.00  0.00    +0.033 A 
ATOM     10  C   UNL     1      -7.245  -5.250   0.000  0.00  0.00    +0.012 A 
ATOM     11  C   UNL     1      -8.544  -4.500   0.000  0.00  0.00    +0.001 A 
ATOM     12  C   UNL     1      -8.544  -3.000   0.000  0.00  0.00    +0.001 A 
ATOM     13  C   UNL     1      -7.245  -2.250   0.000  0.00  0.00    +0.012 A 
ATOM     14  C   UNL     1      -5.946  -3.000   0.000  0.00  0.00    +0.033 A 
ATOM     15  C   UNL     1      -2.049  -5.250   0.000  0.00  0.00    +0.036 A 
ATOM     19  C   UNL     1      -0.750  -4.500   0.000  0.00  0.00    +0.025 A 
ATOM     20  C   UNL     1      -4.647  -2.250   0.000  0.00  0.00    +0.196 C 
ATOM     21  O   UNL     1      -4.647  -0.750   0.000  0.00  0.00    -0.287 OA
ATOM     22  C   UNL     1      -0.750  -3.000   0.000  0.00  0.00    +0.025 A 
ENDROOT
BRANCH   1   2
ATOM      2  N   UNL     1      -2.049  -0.750   0.000  0.00  0.00    -0.357 N 
ATOM      3  H   UNL     1      -2.902  -0.258   0.000  0.00  0.00    +0.142 HD
ATOM      4  H   UNL     1      -1.196  -0.258   0.000  0.00  0.00    +0.142 HD
ENDBRANCH   1   2
BRANCH  15  16
ATOM     16  N   UNL     1      -2.049  -6.750   0.000  0.00  0.00    -0.357 N 
ATOM     17  H   UNL     1      -1.196  -7.242   0.000  0.00  0.00    +0.142 HD
ATOM     18  H   UNL     1      -2.902  -7.242   0.000  0.00  0.00    +0.142 HD
ENDBRANCH  15  16
TORSDOF 2