REMARK  Name = 621486
REMARK  7 active torsions:
REMARK  status: ('A' for Active; 'I' for Inactive)
REMARK    1  A    between atoms: C_1  and  C_25
REMARK    2  A    between atoms: C_2  and  C_24
REMARK    3  A    between atoms: C_9  and  C_13
REMARK    4  A    between atoms: C_10  and  C_14
REMARK    5  A    between atoms: C_14  and  C_16
REMARK    6  A    between atoms: C_17  and  C_18
REMARK    7  A    between atoms: C_19  and  N_26
REMARK                            x       y       z     vdW  Elec       q    Type
REMARK                         _______ _______ _______ _____ _____    ______ ____
ROOT
ATOM      1  C   UNL     1     -13.740  -5.250   0.000  0.00  0.00    -0.041 A 
ATOM      2  C   UNL     1     -15.039  -6.000   0.000  0.00  0.00    +0.044 C 
ATOM      3  C   UNL     1     -12.441  -6.000   0.000  0.00  0.00    +0.090 A 
ATOM      4  C   UNL     1     -11.142  -5.250   0.000  0.00  0.00    +0.292 A 
ATOM      5  N   UNL     1      -9.843  -6.000   0.000  0.00  0.00    -0.157 N 
ATOM      6  C   UNL     1      -8.544  -5.250   0.000  0.00  0.00    +0.269 A 
ATOM      7  C   UNL     1      -7.245  -6.000   0.000  0.00  0.00    +0.131 C 
ATOM      8  C   UNL     1      -8.544  -3.750   0.000  0.00  0.00    +0.334 A 
ATOM     22  N   UNL     1      -9.843  -3.000   0.000  0.00  0.00    -0.150 N 
ATOM     23  O   UNL     1      -9.843  -1.500   0.000  0.00  0.00    -0.619 OA
ATOM     24  O   UNL     1      -9.843  -7.500   0.000  0.00  0.00    -0.619 OA
ATOM     25  C   UNL     1     -11.142  -3.750   0.000  0.00  0.00    +0.293 A 
ATOM     26  C   UNL     1     -12.441  -3.000   0.000  0.00  0.00    +0.090 A 
ATOM     27  C   UNL     1     -13.740  -3.750   0.000  0.00  0.00    -0.041 A 
ATOM     28  C   UNL     1     -15.039  -3.000   0.000  0.00  0.00    +0.044 C 
ENDROOT
BRANCH   8   9
ATOM      9  C   UNL     1      -7.245  -3.000   0.000  0.00  0.00    +0.257 C 
ATOM     21  O   UNL     1      -7.245  -1.500   0.000  0.00  0.00    -0.281 OA
BRANCH   9  10
ATOM     10  C   UNL     1      -5.946  -3.750   0.000  0.00  0.00    +0.059 C 
ATOM     11  C   UNL     1      -4.647  -3.000   0.000  0.00  0.00    +0.018 C 
BRANCH  11  12
ATOM     12  C   UNL     1      -3.348  -3.750   0.000  0.00  0.00    +0.052 A 
ATOM     13  C   UNL     1      -3.348  -5.250   0.000  0.00  0.00    +0.014 A 
ATOM     14  C   UNL     1      -2.049  -6.000   0.000  0.00  0.00    +0.001 A 
ATOM     15  C   UNL     1      -0.750  -5.250   0.000  0.00  0.00    +0.007 A 
ATOM     16  C   UNL     1      -0.750  -3.750   0.000  0.00  0.00    +0.085 A 
ATOM     17  C   UNL     1      -2.049  -3.000   0.000  0.00  0.00    +0.280 A 
BRANCH  17  18
ATOM     18  N   UNL     1      -2.049  -1.500   0.000  0.00  0.00    +0.080 N 
ATOM     19  O   UNL     1      -0.750  -0.750   0.000  0.00  0.00    +0.041 OA
ATOM     20  O   UNL     1      -3.348  -0.750   0.000  0.00  0.00    -0.576 OA
ENDBRANCH  17  18
ENDBRANCH  11  12
ENDBRANCH   9  10
ENDBRANCH   8   9
TORSDOF 4