REMARK  Name = 90487
REMARK  9 active torsions:
REMARK  status: ('A' for Active; 'I' for Inactive)
REMARK    1  A    between atoms: C_5  and  C_33
REMARK    2  A    between atoms: C_9  and  C_35
REMARK    3  A    between atoms: C_14  and  C_32
REMARK    4  A    between atoms: C_17  and  C_31
REMARK    5  A    between atoms: C_18  and  C_29
REMARK    6  A    between atoms: C_23  and  O_26
REMARK    7  A    between atoms: C_25  and  C_27
REMARK    8  A    between atoms: C_25  and  C_28
REMARK    9  A    between atoms: C_33  and  C_34
REMARK                            x       y       z     vdW  Elec       q    Type
REMARK                         _______ _______ _______ _____ _____    ______ ____
ROOT
ATOM      1  C   UNL     1       4.242   2.685   0.000  0.00  0.00    +0.003 C 
ATOM      2  C   UNL     1       2.751   2.529   0.000  0.00  0.00    -0.006 C 
ATOM      3  C   UNL     1       3.164   1.087   0.000  0.00  0.00    +0.014 C 
ATOM      4  C   UNL     1       1.403   1.871   0.000  0.00  0.00    +0.014 C 
ATOM      5  C   UNL     1       1.869   3.742   0.000  0.00  0.00    +0.120 C 
ATOM      8  C   UNL     1       2.479   5.112   0.000  0.00  0.00    +0.032 C 
ATOM      9  C   UNL     1       3.971   5.269   0.000  0.00  0.00    +0.010 C 
ATOM     10  C   UNL     1       5.124   1.472   0.000  0.00  0.00    +0.005 C 
ATOM     11  C   UNL     1       6.616   1.629   0.000  0.00  0.00    +0.008 C 
ATOM     12  C   UNL     1       7.226   2.999   0.000  0.00  0.00    -0.023 C 
ATOM     13  C   UNL     1       7.836   4.369   0.000  0.00  0.00    +0.012 C 
ATOM     14  C   UNL     1       6.344   4.213   0.000  0.00  0.00    +0.002 C 
ATOM     15  C   UNL     1       6.955   5.583   0.000  0.00  0.00    +0.005 C 
ATOM     16  C   UNL     1       8.446   5.740   0.000  0.00  0.00    +0.005 C 
ATOM     17  C   UNL     1       9.328   4.526   0.000  0.00  0.00    -0.000 C 
ATOM     18  C   UNL     1      10.820   4.683   0.000  0.00  0.00    +0.006 C 
ATOM     19  C   UNL     1      11.701   3.469   0.000  0.00  0.00    -0.028 C 
ATOM     20  C   UNL     1      12.165   4.896   0.000  0.00  0.00    +0.011 C 
ATOM     21  C   UNL     1      11.091   2.099   0.000  0.00  0.00    +0.007 C 
ATOM     22  C   UNL     1       9.600   1.942   0.000  0.00  0.00    +0.008 C 
ATOM     23  C   UNL     1      13.128   3.933   0.000  0.00  0.00    +0.007 C 
ATOM     24  C   UNL     1      13.128   5.433   0.000  0.00  0.00    +0.008 C 
ATOM     25  C   UNL     1      11.701   5.896   0.000  0.00  0.00    +0.018 C 
ATOM     29  C   UNL     1       8.718   3.156   0.000  0.00  0.00    -0.023 C 
ATOM     30  C   UNL     1       8.108   1.785   0.000  0.00  0.00    +0.012 C 
ATOM     31  C   UNL     1       4.853   4.056   0.000  0.00  0.00    -0.025 C 
ATOM     32  C   UNL     1       5.463   5.426   0.000  0.00  0.00    +0.012 C 
ENDROOT
BRANCH  25  26
ATOM     26  C   UNL     1      11.238   7.323   0.000  0.00  0.00    -0.076 C 
ATOM     27  C   UNL     1      12.242   8.438   0.000  0.00  0.00    +0.039 C 
ATOM     28  C   UNL     1       9.771   7.635   0.000  0.00  0.00    +0.007 C 
ENDBRANCH  25  26
BRANCH   5   6
ATOM      6  O   UNL     1       0.377   3.585   0.000  0.00  0.00    -0.391 OA
ATOM      7  H   UNL     1      -0.193   4.370   0.000  0.00  0.00    +0.210 HD
ENDBRANCH   5   6
TORSDOF 2