REMARK  Name = 74420
REMARK  3 active torsions:
REMARK  status: ('A' for Active; 'I' for Inactive)
REMARK    1  A    between atoms: C_2  and  C_4
REMARK    2  A    between atoms: C_2  and  C_8
REMARK    3  A    between atoms: N_13  and  N_14
REMARK                            x       y       z     vdW  Elec       q    Type
REMARK                         _______ _______ _______ _____ _____    ______ ____
ROOT
ATOM      1 CL   UNL     1      -5.229  -7.500   0.000  0.00  0.00    -0.145 Cl
ATOM      2  H   UNL     1      -3.899  -7.500   0.000  0.00  0.00    +0.145 HD
ENDROOT
TORSDOF 0