REMARK  Name = 56737
REMARK  14 active torsions:
REMARK  status: ('A' for Active; 'I' for Inactive)
REMARK    1  A    between atoms: C_2  and  C_29
REMARK    2  A    between atoms: C_6  and  O_30
REMARK    3  A    between atoms: C_9  and  C_15
REMARK    4  A    between atoms: C_12  and  O_13
REMARK    5  A    between atoms: O_13  and  C_14
REMARK    6  A    between atoms: N_16  and  N_17
REMARK    7  A    between atoms: C_18  and  C_20
REMARK    8  A    between atoms: C_20  and  C_21
REMARK    9  A    between atoms: C_20  and  S_22
REMARK   10  A    between atoms: S_22  and  C_23
REMARK   11  A    between atoms: C_23  and  C_24
REMARK   12  A    between atoms: C_23  and  C_25
REMARK   13  A    between atoms: N_27  and  N_28
REMARK   14  A    between atoms: O_30  and  C_31
REMARK                            x       y       z     vdW  Elec       q    Type
REMARK                         _______ _______ _______ _____ _____    ______ ____
ROOT
ATOM     11  S   UNL     1     -10.452  -4.889   0.000  0.00  0.00    -0.136 S 
ENDROOT
BRANCH  11   9
ATOM      9  C   UNL     1      -9.153  -4.139   0.000  0.00  0.00    +0.131 C 
ATOM     10  C   UNL     1      -9.153  -2.639   0.000  0.00  0.00    +0.029 C 
BRANCH   9   7
ATOM      5  N   UNL     1      -6.555  -4.139   0.000  0.00  0.00    -0.206 N 
ATOM      6  H   UNL     1      -6.555  -3.155   0.000  0.00  0.00    +0.177 HD
ATOM      7  C   UNL     1      -7.854  -4.889   0.000  0.00  0.00    +0.245 C 
ATOM      8  O   UNL     1      -7.854  -6.389   0.000  0.00  0.00    -0.273 OA
BRANCH   5   4
ATOM      3  C   UNL     1      -3.957  -4.139   0.000  0.00  0.00    +0.138 C 
ATOM      4  N   UNL     1      -5.256  -4.889   0.000  0.00  0.00    -0.188 NA
BRANCH   3   2
ATOM      1  C   UNL     1      -1.359  -4.139   0.000  0.00  0.00    +0.010 A 
ATOM      2  C   UNL     1      -2.658  -4.889   0.000  0.00  0.00    -0.002 A 
ATOM     28  C   UNL     1      -2.658  -6.389   0.000  0.00  0.00    +0.055 A 
ATOM     29  C   UNL     1      -1.359  -7.139   0.000  0.00  0.00    +0.121 A 
ATOM     32  C   UNL     1      -0.060  -6.389   0.000  0.00  0.00    +0.045 A 
ATOM     33  C   UNL     1      -0.060  -4.889   0.000  0.00  0.00    +0.004 A 
BRANCH  29  30
ATOM     30  O   UNL     1      -1.359  -8.639   0.000  0.00  0.00    -0.495 OA
ATOM     31  C   UNL     1      -2.658  -9.389   0.000  0.00  0.00    +0.277 C 
ENDBRANCH  29  30
ENDBRANCH   3   2
ENDBRANCH   5   4
ENDBRANCH   9   7
ENDBRANCH  11   9
BRANCH  11  12
ATOM     12  C   UNL     1     -10.192  -6.367   0.000  0.00  0.00    +0.131 C 
ATOM     13  C   UNL     1      -8.782  -6.880   0.000  0.00  0.00    +0.029 C 
BRANCH  12  14
ATOM     14  C   UNL     1     -11.341  -7.331   0.000  0.00  0.00    +0.245 C 
ATOM     15  O   UNL     1     -11.080  -8.808   0.000  0.00  0.00    -0.273 OA
ATOM     16  N   UNL     1     -12.750  -6.818   0.000  0.00  0.00    -0.206 N 
ATOM     17  H   UNL     1     -13.005  -5.867   0.000  0.00  0.00    +0.177 HD
BRANCH  16  18
ATOM     18  N   UNL     1     -13.714  -7.967   0.000  0.00  0.00    -0.188 NA
ATOM     19  C   UNL     1     -15.192  -7.706   0.000  0.00  0.00    +0.138 C 
BRANCH  19  20
ATOM     20  C   UNL     1     -15.705  -6.297   0.000  0.00  0.00    -0.002 A 
ATOM     21  C   UNL     1     -14.741  -5.148   0.000  0.00  0.00    +0.055 A 
ATOM     22  C   UNL     1     -15.254  -3.738   0.000  0.00  0.00    +0.121 A 
ATOM     25  C   UNL     1     -16.731  -3.478   0.000  0.00  0.00    +0.045 A 
ATOM     26  C   UNL     1     -17.695  -4.627   0.000  0.00  0.00    +0.004 A 
ATOM     27  C   UNL     1     -17.182  -6.036   0.000  0.00  0.00    +0.010 A 
BRANCH  22  23
ATOM     23  O   UNL     1     -14.289  -2.589   0.000  0.00  0.00    -0.495 OA
ATOM     24  C   UNL     1     -14.802  -1.180   0.000  0.00  0.00    +0.277 C 
ENDBRANCH  22  23
ENDBRANCH  19  20
ENDBRANCH  16  18
ENDBRANCH  12  14
ENDBRANCH  11  12
TORSDOF 10