REMARK  Name = 740
REMARK  12 active torsions:
REMARK  status: ('A' for Active; 'I' for Inactive)
REMARK    1  A    between atoms: C_10  and  C_23
REMARK    2  A    between atoms: C_13  and  N_22
REMARK    3  A    between atoms: C_15  and  C_20
REMARK    4  A    between atoms: CG_17  and  CB_18
REMARK    5  A    between atoms: CG_17  and  CD_31
REMARK    6  A    between atoms: CB_18  and  CA_19
REMARK    7  A    between atoms: CA_19  and  N_25
REMARK    8  A    between atoms: CA_19  and  C_28
REMARK    9  A    between atoms: N_22  and  C_23
REMARK   10  A    between atoms: N_22  and  C_24
REMARK   11  A    between atoms: C_28  and  O_29
REMARK   12  A    between atoms: CD_31  and  OE1_32
REMARK                            x       y       z     vdW  Elec       q    Type
REMARK                         _______ _______ _______ _____ _____    ______ ____
ROOT
ATOM     18  C   UNK A   0     -11.142  -3.750   0.000  0.00  0.00    +0.030 A 
ATOM     19  C   UNK A   0     -11.142  -5.250   0.000  0.00  0.00    +0.024 A 
ATOM     20  C   UNK A   0     -12.441  -6.000   0.000  0.00  0.00    +0.015 A 
ATOM     21  C   UNK A   0     -13.740  -5.250   0.000  0.00  0.00    +0.037 A 
ATOM     37  C   UNK A   0     -13.740  -3.750   0.000  0.00  0.00    +0.015 A 
ATOM     38  C   UNK A   0     -12.441  -3.000   0.000  0.00  0.00    +0.024 A 
ENDROOT
BRANCH  21  22
ATOM     22  C   UNK A   0     -15.039  -6.000   0.000  0.00  0.00    +0.245 C 
ATOM     23  N   GLU A   1     -16.338  -5.250   0.000  0.00  0.00    -0.298 N 
ATOM     24  H   GLU A   1     -16.338  -4.266   0.000  0.00  0.00    +0.150 HD
ATOM     36  O   UNK A   0     -15.039  -7.500   0.000  0.00  0.00    -0.270 OA
BRANCH  23  25
ATOM     25  CA  GLU A   1     -17.637  -6.000   0.000  0.00  0.00    +0.182 C 
BRANCH  25  26
ATOM     26  C   GLU A   1     -17.637  -7.500   0.000  0.00  0.00    +0.325 C 
ATOM     27  OXT GLU A   1     -16.338  -8.250   0.000  0.00  0.00    -0.249 OA
BRANCH  26  28
ATOM     28  O   GLU A   1     -18.936  -8.250   0.000  0.00  0.00    -0.479 OA
ATOM     29  H   GLU A   1     -19.748  -7.782   0.000  0.00  0.00    +0.295 HD
ENDBRANCH  26  28
ENDBRANCH  25  26
BRANCH  25  30
ATOM     30  CB  GLU A   1     -18.936  -5.250   0.000  0.00  0.00    +0.045 C 
BRANCH  30  31
ATOM     31  CG  GLU A   1     -20.236  -6.000   0.000  0.00  0.00    +0.123 C 
BRANCH  31  32
ATOM     32  CD  GLU A   1     -21.535  -5.250   0.000  0.00  0.00    +0.305 C 
ATOM     33  OE2 GLU A   1     -21.535  -3.750   0.000  0.00  0.00    -0.251 OA
BRANCH  32  34
ATOM     34  OE1 GLU A   1     -22.834  -6.000   0.000  0.00  0.00    -0.481 OA
ATOM     35  HE1 GLU A   1     -23.645  -5.532   0.000  0.00  0.00    +0.295 HD
ENDBRANCH  32  34
ENDBRANCH  31  32
ENDBRANCH  30  31
ENDBRANCH  25  30
ENDBRANCH  23  25
ENDBRANCH  21  22
BRANCH  18  16
ATOM     16  N   UNK A   0      -9.843  -3.000   0.000  0.00  0.00    -0.327 N 
ATOM     17  C   UNK A   0      -9.843  -1.500   0.000  0.00  0.00    +0.129 C 
BRANCH  16  15
ATOM     15  C   UNK A   0      -8.544  -3.750   0.000  0.00  0.00    +0.161 C 
BRANCH  15  14
ATOM      1  N   UNK A   0      -5.946  -0.750   0.000  0.00  0.00    -0.232 NA
ATOM      2  C   UNK A   0      -4.647  -1.500   0.000  0.00  0.00    +0.185 A 
ATOM      3  C   UNK A   0      -4.647  -3.000   0.000  0.00  0.00    +0.148 A 
ATOM      4  C   UNK A   0      -3.348  -3.750   0.000  0.00  0.00    +0.149 A 
ATOM      5  N   UNK A   0      -3.348  -5.250   0.000  0.00  0.00    -0.341 N 
ATOM      6  H   UNK A   0      -2.495  -5.742   0.000  0.00  0.00    +0.144 HD
ATOM      7  H   UNK A   0      -4.201  -5.742   0.000  0.00  0.00    +0.144 HD
ATOM      8  N   UNK A   0      -2.049  -3.000   0.000  0.00  0.00    -0.198 NA
ATOM      9  C   UNK A   0      -2.049  -1.500   0.000  0.00  0.00    +0.216 A 
ATOM     10  N   UNK A   0      -0.750  -0.750   0.000  0.00  0.00    -0.327 N 
ATOM     11  H   UNK A   0      -0.750   0.234   0.000  0.00  0.00    +0.145 HD
ATOM     12  H   UNK A   0       0.103  -1.242   0.000  0.00  0.00    +0.145 HD
ATOM     13  N   UNK A   0      -5.946  -3.750   0.000  0.00  0.00    -0.242 NA
ATOM     14  C   UNK A   0      -7.245  -3.000   0.000  0.00  0.00    +0.077 A 
ATOM     39  N   UNK A   0      -3.348  -0.750   0.000  0.00  0.00    -0.193 NA
ATOM     40  C   UNK A   0      -7.245  -1.500   0.000  0.00  0.00    +0.138 A 
ENDBRANCH  15  14
ENDBRANCH  16  15
ENDBRANCH  18  16
TORSDOF 11