REMARK  Name = 631152
REMARK  5 active torsions:
REMARK  status: ('A' for Active; 'I' for Inactive)
REMARK    1  A    between atoms: N_4  and  C_16
REMARK    2  A    between atoms: C_5  and  S_6
REMARK    3  A    between atoms: S_6  and  C_7
REMARK    4  A    between atoms: N_8  and  C_15
REMARK    5  A    between atoms: C_11  and  N_12
REMARK                            x       y       z     vdW  Elec       q    Type
REMARK                         _______ _______ _______ _____ _____    ______ ____
ROOT
ATOM      1  N   UNL     1      -1.567   1.928   0.000  0.00  0.00    -0.101 NA
ATOM      2  C   UNL     1      -0.970   0.551   0.000  0.00  0.00    +0.220 A 
ATOM     13  N   UNL     1      -2.095  -0.441   0.000  0.00  0.00    -0.187 N 
ATOM     20  N   UNL     1      -3.386   0.321   0.000  0.00  0.00    -0.038 NA
ATOM     21  N   UNL     1      -3.061   1.785   0.000  0.00  0.00    -0.022 NA
ENDROOT
BRANCH  13  14
ATOM     14  C   UNL     1      -1.952  -1.935   0.000  0.00  0.00    +0.070 A 
ATOM     15  C   UNL     1      -0.588  -2.558   0.000  0.00  0.00    +0.028 A 
ATOM     16  C   UNL     1      -0.446  -4.051   0.000  0.00  0.00    +0.002 A 
ATOM     17  C   UNL     1      -1.667  -4.921   0.000  0.00  0.00    +0.000 A 
ATOM     18  C   UNL     1      -3.032  -4.298   0.000  0.00  0.00    +0.002 A 
ATOM     19  C   UNL     1      -3.174  -2.805   0.000  0.00  0.00    +0.028 A 
ENDBRANCH  13  14
BRANCH   2   3
ATOM      3  S   UNL     1       0.494   0.226   0.000  0.00  0.00    -0.022 S 
BRANCH   3   4
ATOM      4  C   UNL     1       1.301   1.490   0.000  0.00  0.00    +0.184 A 
ATOM      5  C   UNL     1       2.798   1.580   0.000  0.00  0.00    +0.399 A 
ATOM      9  N   UNL     1       3.175   3.032   0.000  0.00  0.00    -0.170 NA
ATOM     10  C   UNL     1       1.911   3.839   0.000  0.00  0.00    +0.206 A 
ATOM     11  N   UNL     1       0.752   2.886   0.000  0.00  0.00    -0.322 N 
ATOM     12  C   UNL     1      -0.700   3.263   0.000  0.00  0.00    +0.151 C 
BRANCH   5   6
ATOM      6  N   UNL     1       3.751   0.422   0.000  0.00  0.00    +0.103 N 
ATOM      7  O   UNL     1       5.231   0.668   0.000  0.00  0.00    +0.043 OA
ATOM      8  O   UNL     1       3.225  -0.983   0.000  0.00  0.00    -0.575 OA
ENDBRANCH   5   6
ENDBRANCH   3   4
ENDBRANCH   2   3
TORSDOF 4