REMARK  Name = 638634
REMARK  4 active torsions:
REMARK  status: ('A' for Active; 'I' for Inactive)
REMARK    1  A    between atoms: C_5  and  C_7
REMARK    2  A    between atoms: C_12  and  C_16
REMARK    3  A    between atoms: C_22  and  C_24
REMARK    4  A    between atoms: C_25  and  C_26
REMARK                            x       y       z     vdW  Elec       q    Type
REMARK                         _______ _______ _______ _____ _____    ______ ____
ROOT
ATOM      4  C   UNL     1       0.549  -6.750   0.000  0.00  0.00    +0.017 C 
ATOM      5  C   UNL     1      -0.750  -7.500   0.000  0.00  0.00    +0.017 C 
ATOM      6  C   UNL     1      -2.049  -6.750   0.000  0.00  0.00    +0.147 C 
ATOM      7  N   UNL     1      -3.348  -7.500   0.000  0.00  0.00    -0.289 N 
ATOM      8  C   UNL     1      -4.647  -6.750   0.000  0.00  0.00    +0.240 C 
ATOM     17  O   UNL     1      -4.647  -5.250   0.000  0.00  0.00    -0.271 OA
ATOM     18  C   UNL     1      -3.348  -9.000   0.000  0.00  0.00    +0.147 C 
ATOM     19  C   UNL     1      -2.049  -9.750   0.000  0.00  0.00    +0.017 C 
ATOM     20  C   UNL     1      -2.049 -11.250   0.000  0.00  0.00    +0.017 C 
ATOM     27  C   UNL     1      -0.750  -9.000   0.000  0.00  0.00    +0.188 C 
ATOM     28  O   UNL     1       0.549  -9.750   0.000  0.00  0.00    -0.287 OA
ENDROOT
BRANCH   4   3
ATOM      1  C   UNL     1       1.848  -3.000   0.000  0.00  0.00    +0.001 A 
ATOM      2  C   UNL     1       1.848  -4.500   0.000  0.00  0.00    +0.008 A 
ATOM      3  C   UNL     1       0.549  -5.250   0.000  0.00  0.00    -0.025 A 
ATOM     29  C   UNL     1      -0.750  -4.500   0.000  0.00  0.00    +0.008 A 
ATOM     30  C   UNL     1      -0.750  -3.000   0.000  0.00  0.00    +0.001 A 
ATOM     31  C   UNL     1       0.549  -2.250   0.000  0.00  0.00    +0.000 A 
ENDBRANCH   4   3
BRANCH  20  21
ATOM     21  C   UNL     1      -3.348 -12.000   0.000  0.00  0.00    -0.025 A 
ATOM     22  C   UNL     1      -3.348 -13.500   0.000  0.00  0.00    +0.008 A 
ATOM     23  C   UNL     1      -4.647 -14.250   0.000  0.00  0.00    +0.001 A 
ATOM     24  C   UNL     1      -5.946 -13.500   0.000  0.00  0.00    +0.000 A 
ATOM     25  C   UNL     1      -5.946 -12.000   0.000  0.00  0.00    +0.001 A 
ATOM     26  C   UNL     1      -4.647 -11.250   0.000  0.00  0.00    +0.008 A 
ENDBRANCH  20  21
BRANCH   8   9
ATOM      9  C   UNL     1      -5.946  -7.500   0.000  0.00  0.00    +0.068 C 
ATOM     10  C   UNL     1      -5.946  -9.000   0.000  0.00  0.00    +0.013 C 
BRANCH  10  11
ATOM     11  C   UNL     1      -7.245  -9.750   0.000  0.00  0.00    -0.025 A 
ATOM     12  C   UNL     1      -7.245 -11.250   0.000  0.00  0.00    +0.008 A 
ATOM     13  C   UNL     1      -8.544 -12.000   0.000  0.00  0.00    +0.001 A 
ATOM     14  C   UNL     1      -9.843 -11.250   0.000  0.00  0.00    +0.000 A 
ATOM     15  C   UNL     1      -9.843  -9.750   0.000  0.00  0.00    +0.001 A 
ATOM     16  C   UNL     1      -8.544  -9.000   0.000  0.00  0.00    +0.008 A 
ENDBRANCH  10  11
ENDBRANCH   8   9
TORSDOF 4