REMARK  Name = 68075
REMARK  20 active torsions:
REMARK  status: ('A' for Active; 'I' for Inactive)
REMARK    1  A    between atoms: C_2  and  C_15
REMARK    2  A    between atoms: C_2  and  C_32
REMARK    3  A    between atoms: N_3  and  C_48
REMARK    4  A    between atoms: O_4  and  C_29
REMARK    5  A    between atoms: O_4  and  C_33
REMARK    6  A    between atoms: N_6  and  C_53
REMARK    7  A    between atoms: C_11  and  O_38
REMARK    8  A    between atoms: C_13  and  O_40
REMARK    9  A    between atoms: C_16  and  O_51
REMARK   10  A    between atoms: C_18  and  O_49
REMARK   11  A    between atoms: C_25  and  O_46
REMARK   12  A    between atoms: C_35  and  O_42
REMARK   13  A    between atoms: C_37  and  O_44
REMARK   14  A    between atoms: O_38  and  C_39
REMARK   15  A    between atoms: O_40  and  C_41
REMARK   16  A    between atoms: O_42  and  C_43
REMARK   17  A    between atoms: O_44  and  C_45
REMARK   18  A    between atoms: O_46  and  C_47
REMARK   19  A    between atoms: O_49  and  C_50
REMARK   20  A    between atoms: O_51  and  C_52
REMARK                            x       y       z     vdW  Elec       q    Type
REMARK                         _______ _______ _______ _____ _____    ______ ____
ROOT
ATOM     17  C   UNL     1       7.016   4.647   0.000  0.00  0.00    +0.000 A 
ATOM     18  C   UNL     1       7.766   3.348   0.000  0.00  0.00    +0.136 A 
ATOM     19  C   UNL     1       7.016   2.049   0.000  0.00  0.00    +0.096 A 
ATOM     20  C   UNL     1       5.516   2.049   0.000  0.00  0.00    +0.165 A 
ATOM     23  C   UNL     1       4.766   3.348   0.000  0.00  0.00    +0.162 A 
ATOM     51  C   UNL     1       5.516   4.647   0.000  0.00  0.00    +0.056 A 
ENDROOT
BRANCH  20  21
ATOM     21  O   UNL     1       4.766   0.750   0.000  0.00  0.00    -0.491 OA
ATOM     22  C   UNL     1       3.266   0.750   0.000  0.00  0.00    +0.277 C 
ENDBRANCH  20  21
BRANCH  23  24
ATOM     24  O   UNL     1       3.266   3.348   0.000  0.00  0.00    -0.491 OA
ATOM     25  C   UNL     1       2.516   4.647   0.000  0.00  0.00    +0.277 C 
ENDBRANCH  23  24
BRANCH  17  16
ATOM     16  C   UNL     1       7.766   5.946   0.000  0.00  0.00    +0.062 C 
BRANCH  16   1
ATOM      1  C   UNL     1       6.802   7.095   0.000  0.00  0.00    +0.091 C 
ATOM      2  C   UNL     1       5.503   7.845   0.000  0.00  0.00    -0.023 A 
ATOM      3  C   UNL     1       4.204   7.095   0.000  0.00  0.00    +0.054 A 
ATOM      4  C   UNL     1       2.905   7.845   0.000  0.00  0.00    +0.162 A 
ATOM      7  C   UNL     1       2.905   9.345   0.000  0.00  0.00    +0.162 A 
ATOM     10  C   UNL     1       4.204  10.095   0.000  0.00  0.00    +0.053 A 
ATOM     11  C   UNL     1       5.503   9.345   0.000  0.00  0.00    -0.038 A 
ATOM     12  C   UNL     1       6.802  10.095   0.000  0.00  0.00    +0.051 C 
ATOM     13  C   UNL     1       8.101   9.345   0.000  0.00  0.00    +0.089 C 
ATOM     14  N   UNL     1       8.101   7.845   0.000  0.00  0.00    -0.298 NA
ATOM     15  C   UNL     1       9.400   7.095   0.000  0.00  0.00    +0.105 C 
BRANCH   4   5
ATOM      5  O   UNL     1       1.606   7.095   0.000  0.00  0.00    -0.491 OA
ATOM      6  C   UNL     1       0.307   7.845   0.000  0.00  0.00    +0.277 C 
ENDBRANCH   4   5
BRANCH   7   8
ATOM      8  O   UNL     1       1.606  10.095   0.000  0.00  0.00    -0.491 OA
ATOM      9  C   UNL     1       0.307   9.345   0.000  0.00  0.00    +0.277 C 
ENDBRANCH   7   8
ENDBRANCH  16   1
ENDBRANCH  17  16
BRANCH  18  26
ATOM     26  O   UNL     1       9.266   3.348   0.000  0.00  0.00    -0.452 OA
BRANCH  26  27
ATOM     27  C   UNL     1       9.779   1.938   0.000  0.00  0.00    +0.170 A 
ATOM     28  C   UNL     1       8.815   0.789   0.000  0.00  0.00    +0.054 A 
ATOM     29  C   UNL     1       9.328  -0.620   0.000  0.00  0.00    -0.034 A 
ATOM     30  C   UNL     1       8.364  -1.769   0.000  0.00  0.00    +0.059 C 
ATOM     31  C   UNL     1       8.877  -3.179   0.000  0.00  0.00    +0.092 C 
ATOM     32  C   UNL     1      10.354  -3.439   0.000  0.00  0.00    -0.015 A 
ATOM     33  C   UNL     1      11.318  -2.290   0.000  0.00  0.00    +0.033 A 
ATOM     34  C   UNL     1      12.796  -2.551   0.000  0.00  0.00    +0.169 A 
ATOM     37  C   UNL     1      13.309  -3.960   0.000  0.00  0.00    +0.162 A 
ATOM     40  C   UNL     1      12.345  -5.109   0.000  0.00  0.00    +0.053 A 
ATOM     41  C   UNL     1      10.867  -4.849   0.000  0.00  0.00    -0.037 A 
ATOM     42  C   UNL     1       9.903  -5.998   0.000  0.00  0.00    +0.051 C 
ATOM     43  C   UNL     1       8.426  -5.737   0.000  0.00  0.00    +0.089 C 
ATOM     44  N   UNL     1       7.913  -4.328   0.000  0.00  0.00    -0.298 NA
ATOM     45  C   UNL     1       6.436  -4.067   0.000  0.00  0.00    +0.105 C 
ATOM     46  C   UNL     1      10.805  -0.880   0.000  0.00  0.00    -0.007 A 
ATOM     47  C   UNL     1      11.770   0.269   0.000  0.00  0.00    +0.058 A 
ATOM     48  C   UNL     1      11.257   1.678   0.000  0.00  0.00    +0.163 A 
BRANCH  34  35
ATOM     35  O   UNL     1      13.760  -1.402   0.000  0.00  0.00    -0.491 OA
ATOM     36  C   UNL     1      13.247   0.008   0.000  0.00  0.00    +0.277 C 
ENDBRANCH  34  35
BRANCH  37  38
ATOM     38  O   UNL     1      14.786  -4.221   0.000  0.00  0.00    -0.491 OA
ATOM     39  C   UNL     1      15.750  -3.071   0.000  0.00  0.00    +0.277 C 
ENDBRANCH  37  38
BRANCH  48  49
ATOM     49  O   UNL     1      12.221   2.827   0.000  0.00  0.00    -0.491 OA
ATOM     50  C   UNL     1      11.708   4.237   0.000  0.00  0.00    +0.277 C 
ENDBRANCH  48  49
ENDBRANCH  26  27
ENDBRANCH  18  26
TORSDOF 11