REMARK  Name = 646200
REMARK  12 active torsions:
REMARK  status: ('A' for Active; 'I' for Inactive)
REMARK    1  A    between atoms: C_1  and  C_2
REMARK    2  A    between atoms: C_1  and  O_15
REMARK    3  A    between atoms: C_1  and  O_17
REMARK    4  A    between atoms: C_2  and  C_3
REMARK    5  A    between atoms: C_2  and  SE_5
REMARK    6  A    between atoms: C_3  and  C_4
REMARK    7  A    between atoms: SE_5  and  C_6
REMARK    8  A    between atoms: C_7  and  N_12
REMARK    9  A    between atoms: O_15  and  C_16
REMARK   10  A    between atoms: C_16  and  C_20
REMARK   11  A    between atoms: O_17  and  C_18
REMARK   12  A    between atoms: C_18  and  C_19
REMARK                            x       y       z     vdW  Elec       q    Type
REMARK                         _______ _______ _______ _____ _____    ______ ____
ROOT
ATOM      8  C   UNL     1       3.650   5.571   0.000  0.00  0.00    +0.000 C 
ENDROOT
BRANCH   8  19
ATOM     19  C   UNL     1       4.399   4.272   0.000  0.00  0.00    +0.000 C 
ATOM     20  C   UNL     1       5.899   4.272   0.000  0.00  0.00    +0.000 C 
ENDBRANCH   8  19
BRANCH   8   1
ATOM      1  C   UNL     1       2.150   5.571   0.000  0.00  0.00    +0.000 C 
BRANCH   1   2
ATOM      2  O   UNL     1       1.400   6.870   0.000  0.00  0.00    +0.000 OA
BRANCH   2   3
ATOM      3  C   UNL     1      -0.101   6.870   0.000  0.00  0.00    +0.000 C 
ATOM      4  C   UNL     1      -0.851   8.169   0.000  0.00  0.00    +0.000 C 
ENDBRANCH   2   3
ENDBRANCH   1   2
BRANCH   1   5
ATOM      5  O   UNL     1       1.400   4.272   0.000  0.00  0.00    +0.000 OA
BRANCH   5   6
ATOM      6  C   UNL     1      -0.101   4.272   0.000  0.00  0.00    +0.000 C 
ATOM      7  C   UNL     1      -0.851   2.973   0.000  0.00  0.00    +0.000 C 
ENDBRANCH   5   6
ENDBRANCH   1   5
ENDBRANCH   8   1
BRANCH   8   9
ATOM      9 SE   UNL     1       4.399   6.870   0.000  0.00  0.00    +0.000 Se
BRANCH   9  10
ATOM     10  C   UNL     1       5.899   6.870   0.000  0.00  0.00    +0.000 A 
ATOM     11  C   UNL     1       6.649   5.571   0.000  0.00  0.00    +0.000 A 
ATOM     12  C   UNL     1       8.149   5.571   0.000  0.00  0.00    +0.000 A 
ATOM     13  C   UNL     1       8.899   6.870   0.000  0.00  0.00    +0.000 A 
ATOM     14  C   UNL     1       8.149   8.169   0.000  0.00  0.00    +0.000 A 
ATOM     15  C   UNL     1       6.649   8.169   0.000  0.00  0.00    +0.000 A 
BRANCH  15  16
ATOM     16  N   UNL     1       5.899   9.468   0.000  0.00  0.00    +1.000 N 
ATOM     17  O   UNL     1       4.399   9.468   0.000  0.00  0.00    +0.000 OA
ATOM     18  O   UNL     1       6.649  10.767   0.000  0.00  0.00    -1.000 OA
ENDBRANCH  15  16
ENDBRANCH   9  10
ENDBRANCH   8   9
TORSDOF 9