REMARK  Name = 658350
REMARK  9 active torsions:
REMARK  status: ('A' for Active; 'I' for Inactive)
REMARK    1  A    between atoms: C_5  and  C_9
REMARK    2  A    between atoms: N_6  and  N_7
REMARK    3  A    between atoms: C_9  and  C_10
REMARK    4  A    between atoms: N_12  and  C_28
REMARK    5  A    between atoms: C_14  and  N_15
REMARK    6  A    between atoms: N_15  and  C_24
REMARK    7  A    between atoms: N_18  and  C_19
REMARK    8  A    between atoms: C_19  and  C_20
REMARK    9  A    between atoms: C_33  and  C_34
REMARK                            x       y       z     vdW  Elec       q    Type
REMARK                         _______ _______ _______ _____ _____    ______ ____
ROOT
ATOM      1  S   UNL     1      13.754   7.749   0.000  0.00  0.00    -0.055 S 
ATOM      2  C   UNL     1      15.180   7.286   0.000  0.00  0.00    +0.020 A 
ATOM     15  C   UNL     1      15.180   5.786   0.000  0.00  0.00    +0.124 A 
ATOM     16  N   UNL     1      13.754   5.322   0.000  0.00  0.00    -0.232 NA
ATOM     17  C   UNL     1      12.872   6.536   0.000  0.00  0.00    +0.178 A 
ATOM     18  N   UNL     1      11.372   6.536   0.000  0.00  0.00    -0.213 N 
ATOM     19  H   UNL     1      10.880   7.388   0.000  0.00  0.00    +0.177 HD
ENDROOT
BRANCH  18  20
ATOM     20  N   UNL     1      10.622   5.237   0.000  0.00  0.00    -0.157 NA
ATOM     21  C   UNL     1       9.122   5.237   0.000  0.00  0.00    +0.185 C 
ATOM     22  S   UNL     1       8.240   4.023   0.000  0.00  0.00    -0.046 S 
ATOM     23  C   UNL     1       6.814   4.487   0.000  0.00  0.00    +0.091 C 
ATOM     24  C   UNL     1       6.814   5.987   0.000  0.00  0.00    +0.260 C 
ATOM     25  O   UNL     1       5.600   6.869   0.000  0.00  0.00    -0.269 OA
ATOM     26  C   UNL     1       5.600   3.605   0.000  0.00  0.00    +0.092 C 
ATOM     35  N   UNL     1       8.240   6.450   0.000  0.00  0.00    -0.245 N 
BRANCH  26  27
ATOM     27  N   UNL     1       4.230   4.215   0.000  0.00  0.00    -0.319 N 
ATOM     28  H   UNL     1       4.127   5.194   0.000  0.00  0.00    +0.152 HD
BRANCH  27  29
ATOM     29  C   UNL     1       3.016   3.333   0.000  0.00  0.00    +0.031 A 
ATOM     30  C   UNL     1       3.173   1.842   0.000  0.00  0.00    +0.023 A 
ATOM     31  C   UNL     1       1.959   0.960   0.000  0.00  0.00    +0.002 A 
ATOM     32  C   UNL     1       0.589   1.570   0.000  0.00  0.00    +0.000 A 
ATOM     33  C   UNL     1       0.432   3.062   0.000  0.00  0.00    +0.002 A 
ATOM     34  C   UNL     1       1.646   3.944   0.000  0.00  0.00    +0.023 A 
ENDBRANCH  27  29
ENDBRANCH  26  27
BRANCH  35  36
ATOM     36  C   UNL     1       8.704   7.877   0.000  0.00  0.00    +0.112 C 
ATOM     37  C   UNL     1      10.171   8.189   0.000  0.00  0.00    +0.025 C 
ENDBRANCH  35  36
ENDBRANCH  18  20
BRANCH   2   3
ATOM      3  C   UNL     1      16.394   8.168   0.000  0.00  0.00    +0.140 C 
BRANCH   3   4
ATOM      4  C   UNL     1      17.764   7.557   0.000  0.00  0.00    +0.222 C 
ATOM      5  N   UNL     1      18.977   8.439   0.000  0.00  0.00    -0.285 N 
ATOM      6  H   UNL     1      18.874   9.418   0.000  0.00  0.00    +0.155 HD
ATOM     14  O   UNL     1      17.921   6.066   0.000  0.00  0.00    -0.275 OA
BRANCH   5   7
ATOM      7  C   UNL     1      20.348   7.829   0.000  0.00  0.00    +0.036 A 
ATOM      8  C   UNL     1      20.505   6.337   0.000  0.00  0.00    -0.029 A 
ATOM      9  C   UNL     1      19.291   5.455   0.000  0.00  0.00    +0.045 C 
ATOM     10  C   UNL     1      21.875   5.727   0.000  0.00  0.00    +0.005 A 
ATOM     11  C   UNL     1      23.088   6.609   0.000  0.00  0.00    +0.000 A 
ATOM     12  C   UNL     1      22.932   8.101   0.000  0.00  0.00    +0.002 A 
ATOM     13  C   UNL     1      21.561   8.711   0.000  0.00  0.00    +0.023 A 
ENDBRANCH   5   7
ENDBRANCH   3   4
ENDBRANCH   2   3
TORSDOF 7