REMARK  Name = 662553
REMARK  2 active torsions:
REMARK  status: ('A' for Active; 'I' for Inactive)
REMARK    1  A    between atoms: N_8  and  C_16
REMARK    2  A    between atoms: C_10  and  C_15
REMARK                            x       y       z     vdW  Elec       q    Type
REMARK                         _______ _______ _______ _____ _____    ______ ____
ROOT
ATOM      1  C   UNL     1       5.145  -0.546   0.000  0.00  0.00    +0.043 A 
ATOM      2  C   UNL     1       4.395  -1.845   0.000  0.00  0.00    +0.024 A 
ATOM      3  C   UNL     1       5.145  -3.144   0.000  0.00  0.00    +0.002 A 
ATOM      4  C   UNL     1       6.645  -3.144   0.000  0.00  0.00    +0.001 A 
ATOM      5  C   UNL     1       7.395  -1.845   0.000  0.00  0.00    +0.012 A 
ATOM      6  C   UNL     1       6.645  -0.546   0.000  0.00  0.00    +0.022 A 
ATOM      7  C   UNL     1       7.581   0.627   0.000  0.00  0.00    +0.080 A 
ATOM      8  N   UNL     1       9.075   0.492   0.000  0.00  0.00    -0.232 N 
ATOM     15  N   UNL     1       9.664   1.872   0.000  0.00  0.00    -0.171 NA
ATOM     16  C   UNL     1       8.534   2.859   0.000  0.00  0.00    +0.065 A 
ATOM     17  C   UNL     1       8.669   4.353   0.000  0.00  0.00    +0.068 C 
ATOM     18  C   UNL     1       7.247   2.089   0.000  0.00  0.00    +0.010 A 
ATOM     19  C   UNL     1       5.895   2.740   0.000  0.00  0.00    +0.135 C 
ATOM     20  C   UNL     1       4.544   2.089   0.000  0.00  0.00    +0.222 C 
ATOM     21  O   UNL     1       3.371   3.024   0.000  0.00  0.00    -0.275 OA
ATOM     22  N   UNL     1       4.210   0.627   0.000  0.00  0.00    -0.285 N 
ATOM     23  H   UNL     1       3.250   0.408   0.000  0.00  0.00    +0.155 HD
ENDROOT
BRANCH   8   9
ATOM      9  C   UNL     1       9.844  -0.795   0.000  0.00  0.00    +0.066 A 
ATOM     10  C   UNL     1      11.344  -0.773   0.000  0.00  0.00    +0.028 A 
ATOM     11  C   UNL     1      12.113  -2.061   0.000  0.00  0.00    +0.002 A 
ATOM     12  C   UNL     1      11.383  -3.371   0.000  0.00  0.00    +0.000 A 
ATOM     13  C   UNL     1       9.883  -3.393   0.000  0.00  0.00    +0.002 A 
ATOM     14  C   UNL     1       9.114  -2.105   0.000  0.00  0.00    +0.028 A 
ENDBRANCH   8   9
TORSDOF 1