REMARK  Name = 5890
REMARK  8 active torsions:
REMARK  status: ('A' for Active; 'I' for Inactive)
REMARK    1  A    between atoms: C_5  and  C_23
REMARK    2  A    between atoms: C_6  and  C_22
REMARK    3  A    between atoms: C_10  and  O_18
REMARK    4  A    between atoms: C_11  and  C_17
REMARK    5  A    between atoms: C_13  and  O_16
REMARK    6  A    between atoms: C_15  and  C_19
REMARK    7  A    between atoms: C_19  and  C_21
REMARK    8  A    between atoms: C_23  and  C_25
REMARK                            x       y       z     vdW  Elec       q    Type
REMARK                         _______ _______ _______ _____ _____    ______ ____
ROOT
ATOM      1  O   UNL     1       6.122   1.241   0.000  0.00  0.00    -0.458 OA
ATOM      2  C   UNL     1       5.240   2.455   0.000  0.00  0.00    +0.150 A 
ATOM      3  C   UNL     1       3.748   2.612   0.000  0.00  0.00    +0.101 A 
ATOM      7  C   UNL     1       3.138   3.982   0.000  0.00  0.00    +0.137 A 
ATOM     10  C   UNL     1       4.020   5.195   0.000  0.00  0.00    +0.034 A 
ATOM     11  C   UNL     1       3.410   6.566   0.000  0.00  0.00    +0.051 C 
ATOM     12  C   UNL     1       5.512   5.039   0.000  0.00  0.00    +0.131 A 
ATOM     15  C   UNL     1       6.122   3.668   0.000  0.00  0.00    +0.058 A 
ATOM     16  C   UNL     1       7.548   3.205   0.000  0.00  0.00    +0.117 C 
ATOM     17  C   UNL     1       7.392   4.697   0.000  0.00  0.00    +0.033 C 
ATOM     18  C   UNL     1       8.847   3.955   0.000  0.00  0.00    +0.169 C 
ATOM     19  C   UNL     1      10.147   3.205   0.000  0.00  0.00    +0.192 C 
ATOM     23  C   UNL     1      10.147   1.705   0.000  0.00  0.00    +0.177 C 
ATOM     24  C   UNL     1       8.847   0.955   0.000  0.00  0.00    +0.090 C 
ATOM     25  O   UNL     1      11.445   0.955   0.000  0.00  0.00    -0.291 OA
ATOM     26  O   UNL     1       8.847   5.455   0.000  0.00  0.00    -0.295 OA
ATOM     27  C   UNL     1       7.548   1.705   0.000  0.00  0.00    +0.127 C 
ENDROOT
BRANCH   3   4
ATOM      4  C   UNL     1       2.867   1.398   0.000  0.00  0.00    +0.167 C 
ATOM      5  C   UNL     1       3.477   0.028   0.000  0.00  0.00    +0.092 C 
ATOM      6  O   UNL     1       1.375   1.555   0.000  0.00  0.00    -0.292 OA
ENDBRANCH   3   4
BRANCH  19  20
ATOM     20  C   UNL     1      11.445   3.955   0.000  0.00  0.00    +0.148 C 
ATOM     21  C   UNL     1      11.445   5.455   0.000  0.00  0.00    +0.087 C 
ATOM     22  O   UNL     1      12.745   3.205   0.000  0.00  0.00    -0.296 OA
ENDBRANCH  19  20
BRANCH   7   8
ATOM      8  O   UNL     1       1.647   4.139   0.000  0.00  0.00    -0.506 OA
ATOM      9  H   UNL     1       1.265   4.995   0.000  0.00  0.00    +0.292 HD
ENDBRANCH   7   8
BRANCH  12  13
ATOM     13  O   UNL     1       6.393   6.252   0.000  0.00  0.00    -0.506 OA
ATOM     14  H   UNL     1       7.325   6.154   0.000  0.00  0.00    +0.292 HD
ENDBRANCH  12  13
TORSDOF 4