REMARK  Name = 623095
REMARK  7 active torsions:
REMARK  status: ('A' for Active; 'I' for Inactive)
REMARK    1  A    between atoms: C_2  and  C_8
REMARK    2  A    between atoms: C_13  and  N_14
REMARK    3  A    between atoms: C_15  and  C_17
REMARK    4  A    between atoms: C_25  and  C_26
REMARK    5  A    between atoms: C_29  and  N_30
REMARK    6  A    between atoms: N_30  and  C_31
REMARK    7  A    between atoms: N_30  and  C_32
REMARK                            x       y       z     vdW  Elec       q    Type
REMARK                         _______ _______ _______ _____ _____    ______ ____
ROOT
ATOM      1  N   UNL     1     -11.874  -3.028   0.000  0.00  0.00    -0.156 NA
ATOM      2  N   UNL     1     -10.871  -4.143   0.000  0.00  0.00    -0.170 N 
ATOM      3  C   UNL     1      -9.370  -4.143   0.000  0.00  0.00    +0.288 A 
ATOM      4  O   UNL     1      -8.489  -2.929   0.000  0.00  0.00    -0.265 OA
ATOM      5  C   UNL     1      -8.907  -5.569   0.000  0.00  0.00    +0.082 A 
ATOM      6  C   UNL     1      -7.480  -6.033   0.000  0.00  0.00    +0.028 C 
ATOM     16  S   UNL     1     -10.120  -6.451   0.000  0.00  0.00    -0.044 S 
ATOM     17  C   UNL     1     -11.334  -5.569   0.000  0.00  0.00    +0.201 A 
ATOM     18  N   UNL     1     -12.801  -5.881   0.000  0.00  0.00    -0.181 NA
ATOM     19  C   UNL     1     -13.805  -4.766   0.000  0.00  0.00    +0.300 A 
ATOM     20  O   UNL     1     -15.272  -5.078   0.000  0.00  0.00    -0.263 OA
ATOM     21  C   UNL     1     -13.341  -3.340   0.000  0.00  0.00    +0.160 A 
ENDROOT
BRANCH   6   7
ATOM      7  C   UNL     1      -6.366  -5.029   0.000  0.00  0.00    -0.024 A 
ATOM      8  C   UNL     1      -6.678  -3.562   0.000  0.00  0.00    +0.010 A 
ATOM      9  C   UNL     1      -5.563  -2.558   0.000  0.00  0.00    +0.023 A 
ATOM     10  C   UNL     1      -4.136  -3.022   0.000  0.00  0.00    +0.029 A 
ATOM     14  C   UNL     1      -3.824  -4.489   0.000  0.00  0.00    +0.023 A 
ATOM     15  C   UNL     1      -4.939  -5.493   0.000  0.00  0.00    +0.010 A 
BRANCH  10  11
ATOM     11  N   UNL     1      -3.022  -2.018   0.000  0.00  0.00    -0.336 N 
ATOM     12  C   UNL     1      -1.595  -2.482   0.000  0.00  0.00    +0.129 C 
ATOM     13  C   UNL     1      -3.333  -0.551   0.000  0.00  0.00    +0.129 C 
ENDBRANCH  10  11
ENDBRANCH   6   7
BRANCH  21  22
ATOM     22  C   UNL     1     -14.345  -2.225   0.000  0.00  0.00    +0.029 A 
ATOM     23  C   UNL     1     -13.882  -0.798   0.000  0.00  0.00    +0.043 A 
ATOM     32  C   UNL     1     -14.885   0.316   0.000  0.00  0.00    +0.024 A 
ATOM     33  C   UNL     1     -16.352   0.004   0.000  0.00  0.00    +0.002 A 
ATOM     34  C   UNL     1     -16.816  -1.422   0.000  0.00  0.00    +0.001 A 
ATOM     35  C   UNL     1     -15.812  -2.537   0.000  0.00  0.00    +0.012 A 
BRANCH  23  24
ATOM     24  N   UNL     1     -12.414  -0.487   0.000  0.00  0.00    -0.278 N 
ATOM     25  H   UNL     1     -11.756  -1.218   0.000  0.00  0.00    +0.155 HD
ATOM     26  C   UNL     1     -11.951   0.940   0.000  0.00  0.00    +0.321 C 
ATOM     31  O   UNL     1     -12.954   2.055   0.000  0.00  0.00    -0.266 OA
BRANCH  26  27
ATOM     27  C   UNL     1     -10.484   1.252   0.000  0.00  0.00    +0.470 C 
ATOM     28  F   UNL     1     -10.796   2.719   0.000  0.00  0.00    -0.162 F 
ATOM     29  F   UNL     1     -10.172  -0.215   0.000  0.00  0.00    -0.162 F 
ATOM     30  F   UNL     1      -9.016   1.564   0.000  0.00  0.00    -0.162 F 
ENDBRANCH  26  27
ENDBRANCH  23  24
ENDBRANCH  21  22
TORSDOF 5