REMARK  Name = 678917
REMARK  10 active torsions:
REMARK  status: ('A' for Active; 'I' for Inactive)
REMARK    1  A    between atoms: C_3  and  O_19
REMARK    2  A    between atoms: C_6  and  O_17
REMARK    3  A    between atoms: C_11  and  C_15
REMARK    4  A    between atoms: O_17  and  C_18
REMARK    5  A    between atoms: O_19  and  C_20
REMARK    6  A    between atoms: C_21  and  C_22
REMARK    7  A    between atoms: C_21  and  N_23
REMARK    8  A    between atoms: C_22  and  N_24
REMARK    9  A    between atoms: N_24  and  C_25
REMARK   10  A    between atoms: N_24  and  C_26
REMARK                            x       y       z     vdW  Elec       q    Type
REMARK                         _______ _______ _______ _____ _____    ______ ____
ROOT
ATOM      1 CL   UNL     1      12.167   4.574   0.000  0.00  0.00    -0.145 Cl
ATOM      2  H   UNL     1      13.497   4.574   0.000  0.00  0.00    +0.145 HD
ENDROOT
TORSDOF 0