REMARK  Name = 666168
REMARK  1 active torsions:
REMARK  status: ('A' for Active; 'I' for Inactive)
REMARK    1  A    between atoms: C_16  and  N_18
REMARK                            x       y       z     vdW  Elec       q    Type
REMARK                         _______ _______ _______ _____ _____    ______ ____
ROOT
ATOM      1  C   UNL     1       4.461  -0.520   0.000  0.00  0.00    -0.011 A 
ATOM      2  C   UNL     1       3.457   0.595   0.000  0.00  0.00    +0.009 A 
ATOM      3  C   UNL     1       1.990   0.283   0.000  0.00  0.00    +0.001 A 
ATOM      4  C   UNL     1       1.526  -1.144   0.000  0.00  0.00    +0.000 A 
ATOM      5  C   UNL     1       2.530  -2.259   0.000  0.00  0.00    +0.007 A 
ATOM      6  C   UNL     1       3.997  -1.947   0.000  0.00  0.00    +0.001 A 
ATOM      7  C   UNL     1       5.211  -2.828   0.000  0.00  0.00    +0.204 C 
ATOM      8  N   UNL     1       6.510  -3.578   0.000  0.00  0.00    -0.179 N 
ATOM      9  H   UNL     1       7.362  -3.086   0.000  0.00  0.00    +0.187 HD
ATOM     10  N   UNL     1       6.510  -5.078   0.000  0.00  0.00    +0.014 NA
ATOM     11  C   UNL     1       5.211  -5.828   0.000  0.00  0.00    +0.526 C 
ATOM     12  N   UNL     1       3.912  -5.078   0.000  0.00  0.00    -0.162 N 
ATOM     13  H   UNL     1       3.059  -5.571   0.000  0.00  0.00    +0.255 HD
ATOM     17  C   UNL     1       3.912  -3.578   0.000  0.00  0.00    +0.311 C 
ATOM     18  O   UNL     1       2.502  -3.065   0.000  0.00  0.00    -0.254 OA
ATOM     19  C   UNL     1       6.424  -1.947   0.000  0.00  0.00    +0.001 A 
ATOM     20  C   UNL     1       7.892  -2.258   0.000  0.00  0.00    +0.007 A 
ATOM     21  C   UNL     1       8.895  -1.144   0.000  0.00  0.00    +0.000 A 
ATOM     22  C   UNL     1       8.432   0.283   0.000  0.00  0.00    +0.001 A 
ATOM     23  C   UNL     1       6.965   0.595   0.000  0.00  0.00    +0.009 A 
ATOM     24  C   UNL     1       5.961  -0.520   0.000  0.00  0.00    -0.011 A 
ENDROOT
BRANCH  11  14
ATOM     14  N   UNL     1       5.211  -7.328   0.000  0.00  0.00    +0.315 NA
ATOM     15  N   UNL     1       6.510  -8.078   0.000  0.00  0.00    +0.073 NA
ATOM     16  N   UNL     1       7.809  -8.828   0.000  0.00  0.00    -0.311 NA
ENDBRANCH  11  14
TORSDOF 1