REMARK  Name = 635544
REMARK  7 active torsions:
REMARK  status: ('A' for Active; 'I' for Inactive)
REMARK    1  A    between atoms: C_9  and  C_14
REMARK    2  A    between atoms: C_10  and  C_13
REMARK    3  A    between atoms: C_14  and  C_16
REMARK    4  A    between atoms: C_16  and  C_17
REMARK    5  A    between atoms: C_17  and  C_20
REMARK    6  A    between atoms: N_18  and  O_19
REMARK    7  A    between atoms: N_22  and  C_23
REMARK                            x       y       z     vdW  Elec       q    Type
REMARK                         _______ _______ _______ _____ _____    ______ ____
ROOT
ATOM      7  C   UNL     1       9.843   5.250   0.000  0.00  0.00    +0.149 C 
ATOM     21  N   UNL     1       9.843   6.750   0.000  0.00  0.00    -0.086 NA
ENDROOT
BRANCH   7   8
ATOM      8  C   UNL     1      11.142   4.500   0.000  0.00  0.00    +0.266 C 
ATOM      9  N   UNL     1      12.441   5.250   0.000  0.00  0.00    -0.279 N 
ATOM     10  H   UNL     1      12.441   6.234   0.000  0.00  0.00    +0.155 HD
ATOM     20  O   UNL     1      11.142   3.000   0.000  0.00  0.00    -0.268 OA
BRANCH   9  11
ATOM     11  C   UNL     1      13.740   4.500   0.000  0.00  0.00    +0.054 A 
ATOM     12  C   UNL     1      13.740   3.000   0.000  0.00  0.00    +0.046 A 
ATOM     13  C   UNL     1      15.039   2.250   0.000  0.00  0.00    +0.061 A 
ATOM     14 CL   UNL     1      15.039   0.750   0.000  0.00  0.00    -0.082 Cl
ATOM     15  C   UNL     1      16.339   3.000   0.000  0.00  0.00    +0.061 A 
ATOM     16 CL   UNL     1      17.637   2.250   0.000  0.00  0.00    -0.082 Cl
ATOM     17  C   UNL     1      16.339   4.500   0.000  0.00  0.00    +0.043 A 
ATOM     18  C   UNL     1      15.039   5.250   0.000  0.00  0.00    +0.064 A 
ATOM     19 CL   UNL     1      15.039   6.750   0.000  0.00  0.00    -0.082 Cl
ENDBRANCH   9  11
ENDBRANCH   7   8
BRANCH  21  22
ATOM     22  O   UNL     1       8.544   7.500   0.000  0.00  0.00    -0.409 OA
ATOM     23  H   UNL     1       8.544   8.437   0.000  0.00  0.00    +0.328 HD
ENDBRANCH  21  22
BRANCH   7   6
ATOM      6  C   UNL     1       8.544   4.500   0.000  0.00  0.00    +0.150 C 
BRANCH   6   5
ATOM      5  C   UNL     1       7.245   5.250   0.000  0.00  0.00    +0.240 C 
ATOM     24  O   UNL     1       7.245   6.750   0.000  0.00  0.00    -0.285 OA
BRANCH   5   4
ATOM      1  C   UNL     1       2.049   5.250   0.000  0.00  0.00    +0.086 A 
ATOM      2  C   UNL     1       3.348   4.500   0.000  0.00  0.00    +0.293 A 
ATOM      3  N   UNL     1       4.647   5.250   0.000  0.00  0.00    -0.150 N 
ATOM      4  C   UNL     1       5.946   4.500   0.000  0.00  0.00    +0.331 A 
ATOM     25  C   UNL     1       5.946   3.000   0.000  0.00  0.00    +0.269 A 
ATOM     26  C   UNL     1       7.245   2.250   0.000  0.00  0.00    +0.131 C 
ATOM     27  N   UNL     1       4.647   2.250   0.000  0.00  0.00    -0.157 N 
ATOM     28  O   UNL     1       4.647   0.750   0.000  0.00  0.00    -0.619 OA
ATOM     29  O   UNL     1       4.647   6.750   0.000  0.00  0.00    -0.619 OA
ATOM     30  C   UNL     1       3.348   3.000   0.000  0.00  0.00    +0.292 A 
ATOM     31  C   UNL     1       2.049   2.250   0.000  0.00  0.00    +0.086 A 
ATOM     32  C   UNL     1       0.750   3.000   0.000  0.00  0.00    +0.007 A 
ATOM     33  C   UNL     1       0.750   4.500   0.000  0.00  0.00    +0.007 A 
ENDBRANCH   5   4
ENDBRANCH   6   5
ENDBRANCH   7   6
TORSDOF 6