REMARK  Name = 697726
REMARK  5 active torsions:
REMARK  status: ('A' for Active; 'I' for Inactive)
REMARK    1  A    between atoms: C_1  and  C_11
REMARK    2  A    between atoms: C_2  and  N_17
REMARK    3  A    between atoms: C_4  and  C_9
REMARK    4  A    between atoms: C_5  and  N_12
REMARK    5  A    between atoms: C_9  and  O_10
REMARK                            x       y       z     vdW  Elec       q    Type
REMARK                         _______ _______ _______ _____ _____    ______ ____
ROOT
ATOM      1  C   UNL     1      -3.998  -4.674   0.000  0.00  0.00    +0.023 C 
ATOM      2  C   UNL     1      -5.297  -3.924   0.000  0.00  0.00    +0.050 C 
ATOM      3  C   UNL     1      -2.699  -3.924   0.000  0.00  0.00    +0.205 C 
ATOM      4  O   UNL     1      -2.699  -2.424   0.000  0.00  0.00    -0.286 OA
ATOM      5  C   UNL     1      -1.400  -4.674   0.000  0.00  0.00    +0.087 C 
ATOM      9  C   UNL     1      -1.400  -6.174   0.000  0.00  0.00    +0.051 C 
ATOM     13  C   UNL     1      -2.699  -6.924   0.000  0.00  0.00    +0.207 C 
ATOM     14  O   UNL     1      -2.699  -8.424   0.000  0.00  0.00    -0.285 OA
ATOM     15  C   UNL     1      -3.998  -6.174   0.000  0.00  0.00    +0.084 C 
ENDROOT
BRANCH   5   6
ATOM      6  N   UNL     1      -0.101  -3.924   0.000  0.00  0.00    -0.324 N 
ATOM      7  C   UNL     1       0.649  -2.625   0.000  0.00  0.00    +0.124 C 
ATOM      8  C   UNL     1       1.400  -3.924   0.000  0.00  0.00    +0.124 C 
ENDBRANCH   5   6
BRANCH  15  16
ATOM     16  N   UNL     1      -5.297  -6.924   0.000  0.00  0.00    -0.324 N 
ATOM     17  C   UNL     1      -6.047  -8.223   0.000  0.00  0.00    +0.124 C 
ATOM     18  C   UNL     1      -6.797  -6.924   0.000  0.00  0.00    +0.124 C 
ENDBRANCH  15  16
BRANCH   9  10
ATOM     10  C   UNL     1      -0.101  -6.924   0.000  0.00  0.00    +0.197 C 
BRANCH  10  11
ATOM     11  O   UNL     1       1.199  -6.174   0.000  0.00  0.00    -0.390 OA
ATOM     12  H   UNL     1       2.039  -6.659   0.000  0.00  0.00    +0.210 HD
ENDBRANCH  10  11
ENDBRANCH   9  10
TORSDOF 4