REMARK  Name = 9706
REMARK  0 active torsions:
REMARK  status: ('A' for Active; 'I' for Inactive)
REMARK                            x       y       z     vdW  Elec       q    Type
REMARK                         _______ _______ _______ _____ _____    ______ ____
ROOT
ATOM      1  N   UNL     1       3.250  -1.531   0.000  0.00  0.00    -0.296 N 
ATOM      2  C   UNL     1       4.549  -2.281   0.000  0.00  0.00    +0.224 A 
ATOM      3  N   UNL     1       5.848  -1.531   0.000  0.00  0.00    -0.181 NA
ATOM      4  C   UNL     1       7.147  -2.281   0.000  0.00  0.00    +0.224 A 
ATOM      5  N   UNL     1       8.446  -1.531   0.000  0.00  0.00    -0.296 N 
ATOM      6  C   UNL     1       9.946  -1.531   0.000  0.00  0.00    +0.127 C 
ATOM      7  C   UNL     1       9.196  -0.232   0.000  0.00  0.00    +0.127 C 
ATOM      8  N   UNL     1       7.147  -3.781   0.000  0.00  0.00    -0.181 NA
ATOM      9  C   UNL     1       5.848  -4.531   0.000  0.00  0.00    +0.224 A 
ATOM     10  N   UNL     1       5.848  -6.031   0.000  0.00  0.00    -0.296 N 
ATOM     11  C   UNL     1       5.098  -7.330   0.000  0.00  0.00    +0.127 C 
ATOM     12  C   UNL     1       6.598  -7.330   0.000  0.00  0.00    +0.127 C 
ATOM     13  N   UNL     1       4.549  -3.781   0.000  0.00  0.00    -0.181 NA
ATOM     14  C   UNL     1       1.750  -1.531   0.000  0.00  0.00    +0.127 C 
ATOM     15  C   UNL     1       2.500  -0.232   0.000  0.00  0.00    +0.127 C 
ENDROOT
TORSDOF 0