REMARK  Name = 622640
REMARK  4 active torsions:
REMARK  status: ('A' for Active; 'I' for Inactive)
REMARK    1  A    between atoms: C_1  and  N_8
REMARK    2  A    between atoms: C_3  and  C_14
REMARK    3  A    between atoms: C_5  and  N_11
REMARK    4  A    between atoms: C_6  and  C_7
REMARK                            x       y       z     vdW  Elec       q    Type
REMARK                         _______ _______ _______ _____ _____    ______ ____
ROOT
ATOM      1  C   UNL     1      -2.863  -5.519   0.000  0.00  0.00    +0.292 A 
ATOM      5  C   UNL     1      -1.564  -6.269   0.000  0.00  0.00    +0.190 A 
ATOM     11  C   UNL     1      -1.564  -7.769   0.000  0.00  0.00    +0.292 A 
ATOM     15  C   UNL     1      -2.863  -8.519   0.000  0.00  0.00    +0.098 A 
ATOM     16  C   UNL     1      -4.162  -7.769   0.000  0.00  0.00    +0.068 A 
ATOM     21  C   UNL     1      -4.162  -6.269   0.000  0.00  0.00    +0.098 A 
ENDROOT
BRANCH   5   6
ATOM      6  C   UNL     1      -0.265  -5.519   0.000  0.00  0.00    +0.255 C 
ATOM      7  N   UNL     1       1.034  -6.269   0.000  0.00  0.00    -0.325 N 
ATOM      8  H   UNL     1       1.886  -5.777   0.000  0.00  0.00    +0.145 HD
ATOM      9  H   UNL     1       1.034  -7.254   0.000  0.00  0.00    +0.145 HD
ATOM     10  O   UNL     1      -0.265  -4.019   0.000  0.00  0.00    -0.270 OA
ENDBRANCH   5   6
BRANCH  16  17
ATOM     17  C   UNL     1      -5.461  -8.519   0.000  0.00  0.00    +0.418 C 
ATOM     18  F   UNL     1      -6.760  -7.769   0.000  0.00  0.00    -0.166 F 
ATOM     19  F   UNL     1      -5.461 -10.019   0.000  0.00  0.00    -0.166 F 
ATOM     20  F   UNL     1      -6.760  -9.269   0.000  0.00  0.00    -0.166 F 
ENDBRANCH  16  17
BRANCH   1   2
ATOM      2  N   UNL     1      -2.863  -4.019   0.000  0.00  0.00    +0.081 N 
ATOM      3  O   UNL     1      -1.564  -3.269   0.000  0.00  0.00    +0.041 OA
ATOM      4  O   UNL     1      -4.162  -3.269   0.000  0.00  0.00    -0.576 OA
ENDBRANCH   1   2
BRANCH  11  12
ATOM     12  N   UNL     1      -0.265  -8.519   0.000  0.00  0.00    +0.081 N 
ATOM     13  O   UNL     1       1.034  -7.769   0.000  0.00  0.00    +0.041 OA
ATOM     14  O   UNL     1      -0.265 -10.019   0.000  0.00  0.00    -0.576 OA
ENDBRANCH  11  12
TORSDOF 4