REMARK  Name = 624358
REMARK  1 active torsions:
REMARK  status: ('A' for Active; 'I' for Inactive)
REMARK    1  A    between atoms: C_8  and  C_10
REMARK                            x       y       z     vdW  Elec       q    Type
REMARK                         _______ _______ _______ _____ _____    ______ ____
ROOT
ATOM      1  C   UNL     1      -6.758   5.705   0.000  0.00  0.00    +0.001 C 
ATOM      2  C   UNL     1      -5.459   4.955   0.000  0.00  0.00    +0.005 C 
ATOM      3  C   UNL     1      -5.459   3.455   0.000  0.00  0.00    +0.006 C 
ATOM      4  C   UNL     1      -4.160   2.705   0.000  0.00  0.00    -0.023 C 
ATOM      5  C   UNL     1      -2.861   3.455   0.000  0.00  0.00    +0.012 C 
ATOM      6  C   UNL     1      -4.160   1.205   0.000  0.00  0.00    +0.044 C 
ATOM      7  C   UNL     1      -5.459   0.455   0.000  0.00  0.00    +0.139 C 
ATOM      8 BR   UNL     1      -4.160  -0.295   0.000  0.00  0.00    -0.064 Br
ATOM      9 BR   UNL     1      -6.209  -0.844   0.000  0.00  0.00    -0.064 Br
ATOM     10  C   UNL     1      -6.758   1.205   0.000  0.00  0.00    +0.164 C 
ATOM     11  O   UNL     1      -8.057   0.455   0.000  0.00  0.00    -0.295 OA
ATOM     12  C   UNL     1      -8.057   3.455   0.000  0.00  0.00    +0.006 C 
ATOM     13  C   UNL     1      -6.758   2.705   0.000  0.00  0.00    +0.065 C 
ATOM     14  C   UNL     1      -8.057   4.955   0.000  0.00  0.00    +0.005 C 
ENDROOT
TORSDOF 0