REMARK  Name = 629713
REMARK  2 active torsions:
REMARK  status: ('A' for Active; 'I' for Inactive)
REMARK    1  A    between atoms: C_14  and  C_23
REMARK    2  A    between atoms: C_15  and  C_17
REMARK                            x       y       z     vdW  Elec       q    Type
REMARK                         _______ _______ _______ _____ _____    ______ ____
ROOT
ATOM      1  C   UNL     1       2.049   6.000   0.000  0.00  0.00    +0.012 A 
ATOM      2  C   UNL     1       3.348   5.250   0.000  0.00  0.00    +0.035 A 
ATOM      3  C   UNL     1       4.647   6.000   0.000  0.00  0.00    +0.214 C 
ATOM      4  C   UNL     1       5.946   5.250   0.000  0.00  0.00    +0.141 A 
ATOM      5  N   UNL     1       7.245   6.000   0.000  0.00  0.00    -0.239 NA
ATOM      6  C   UNL     1       8.544   5.250   0.000  0.00  0.00    +0.098 A 
ATOM     13  C   UNL     1       8.544   3.750   0.000  0.00  0.00    +0.098 A 
ATOM     20  N   UNL     1       7.245   3.000   0.000  0.00  0.00    -0.239 NA
ATOM     21  C   UNL     1       5.946   3.750   0.000  0.00  0.00    +0.141 A 
ATOM     22  C   UNL     1       4.647   3.000   0.000  0.00  0.00    +0.214 C 
ATOM     23  O   UNL     1       4.647   1.500   0.000  0.00  0.00    -0.285 OA
ATOM     24  O   UNL     1       4.647   7.500   0.000  0.00  0.00    -0.285 OA
ATOM     25  C   UNL     1       3.348   3.750   0.000  0.00  0.00    +0.035 A 
ATOM     26  C   UNL     1       2.049   3.000   0.000  0.00  0.00    +0.012 A 
ATOM     27  C   UNL     1       0.750   3.750   0.000  0.00  0.00    +0.001 A 
ATOM     28  C   UNL     1       0.750   5.250   0.000  0.00  0.00    +0.001 A 
ENDROOT
BRANCH   6   7
ATOM      7  C   UNL     1       9.843   6.000   0.000  0.00  0.00    +0.002 A 
ATOM      8  C   UNL     1      11.142   5.250   0.000  0.00  0.00    +0.010 A 
ATOM      9  C   UNL     1      12.441   6.000   0.000  0.00  0.00    +0.001 A 
ATOM     10  C   UNL     1      12.441   7.500   0.000  0.00  0.00    +0.000 A 
ATOM     11  C   UNL     1      11.142   8.250   0.000  0.00  0.00    +0.001 A 
ATOM     12  C   UNL     1       9.843   7.500   0.000  0.00  0.00    +0.010 A 
ENDBRANCH   6   7
BRANCH  13  14
ATOM     14  C   UNL     1       9.843   3.000   0.000  0.00  0.00    +0.002 A 
ATOM     15  C   UNL     1       9.843   1.500   0.000  0.00  0.00    +0.010 A 
ATOM     16  C   UNL     1      11.142   0.750   0.000  0.00  0.00    +0.001 A 
ATOM     17  C   UNL     1      12.441   1.500   0.000  0.00  0.00    +0.000 A 
ATOM     18  C   UNL     1      12.441   3.000   0.000  0.00  0.00    +0.001 A 
ATOM     19  C   UNL     1      11.142   3.750   0.000  0.00  0.00    +0.010 A 
ENDBRANCH  13  14
TORSDOF 2