REMARK  Name = 697923
REMARK  4 active torsions:
REMARK  status: ('A' for Active; 'I' for Inactive)
REMARK    1  A    between atoms: S_4  and  C_7
REMARK    2  A    between atoms: S_4  and  C_8
REMARK    3  A    between atoms: C_11  and  C_18
REMARK    4  A    between atoms: C_14  and  N_15
REMARK                            x       y       z     vdW  Elec       q    Type
REMARK                         _______ _______ _______ _____ _____    ______ ____
ROOT
ATOM      9  S   UNL     1      -5.946  -5.775   0.000  0.00  0.00    +0.058 S 
ATOM     17  O   UNL     1      -7.245  -6.525   0.000  0.00  0.00    -0.161 OA
ATOM     18  O   UNL     1      -5.196  -7.074   0.000  0.00  0.00    -0.161 OA
ENDROOT
BRANCH   9  10
ATOM     10  C   UNL     1      -4.647  -5.025   0.000  0.00  0.00    +0.097 A 
ATOM     11  C   UNL     1      -4.647  -3.525   0.000  0.00  0.00    +0.028 A 
ATOM     12  C   UNL     1      -3.348  -2.775   0.000  0.00  0.00    +0.005 A 
ATOM     13  C   UNL     1      -2.049  -3.525   0.000  0.00  0.00    -0.050 A 
ATOM     14  C   UNL     1      -0.750  -2.775   0.000  0.00  0.00    +0.044 C 
ATOM     15  C   UNL     1      -2.049  -5.025   0.000  0.00  0.00    +0.005 A 
ATOM     16  C   UNL     1      -3.348  -5.775   0.000  0.00  0.00    +0.028 A 
ENDBRANCH   9  10
BRANCH   9   8
ATOM      1  O   UNL     1      -8.188  -4.319   0.000  0.00  0.00    -0.382 OA
ATOM      2  C   UNL     1      -8.500  -2.852   0.000  0.00  0.00    +0.439 A 
ATOM      6  C   UNL     1      -7.201  -2.102   0.000  0.00  0.00    +0.133 A 
ATOM      7  C   UNL     1      -6.086  -3.106   0.000  0.00  0.00    +0.077 A 
ATOM      8  C   UNL     1      -6.696  -4.476   0.000  0.00  0.00    +0.253 A 
BRANCH   2   3
ATOM      3  N   UNL     1      -9.870  -2.242   0.000  0.00  0.00    +0.119 N 
ATOM      4  O   UNL     1     -11.084  -3.123   0.000  0.00  0.00    +0.045 OA
ATOM      5  O   UNL     1     -10.027  -0.750   0.000  0.00  0.00    -0.573 OA
ENDBRANCH   2   3
ENDBRANCH   9   8
TORSDOF 3