REMARK  Name = 657456
REMARK  2 active torsions:
REMARK  status: ('A' for Active; 'I' for Inactive)
REMARK    1  A    between atoms: N_11  and  N_12
REMARK    2  A    between atoms: C_16  and  C_23
REMARK                            x       y       z     vdW  Elec       q    Type
REMARK                         _______ _______ _______ _____ _____    ______ ____
ROOT
ATOM      7  N   UNL     1      -0.015  -1.972   0.000  0.00  0.00    -0.215 N 
ATOM      8  H   UNL     1      -0.082  -2.954   0.000  0.00  0.00    +0.176 HD
ATOM      9  C   UNL     1       1.333  -1.312   0.000  0.00  0.00    +0.178 A 
ATOM     10  N   UNL     1       1.591   0.166   0.000  0.00  0.00    -0.224 NA
ATOM     11  C   UNL     1       3.076   0.376   0.000  0.00  0.00    +0.080 A 
ATOM     19  C   UNL     1       3.736  -0.971   0.000  0.00  0.00    +0.077 A 
ATOM     20  S   UNL     1       2.658  -2.014   0.000  0.00  0.00    -0.059 S 
ENDROOT
BRANCH   7   6
ATOM      1  C   UNL     1      -6.817  -0.269   0.000  0.00  0.00    +0.002 A 
ATOM      2  C   UNL     1      -5.739   0.774   0.000  0.00  0.00    +0.001 A 
ATOM      3  C   UNL     1      -4.297   0.363   0.000  0.00  0.00    +0.012 A 
ATOM      4  C   UNL     1      -3.932  -1.092   0.000  0.00  0.00    +0.028 A 
ATOM      5  C   UNL     1      -2.607  -1.794   0.000  0.00  0.00    +0.152 C 
ATOM      6  N   UNL     1      -1.259  -1.135   0.000  0.00  0.00    -0.175 NA
ATOM     21  C   UNL     1      -2.865  -3.272   0.000  0.00  0.00    +0.269 C 
ATOM     22  O   UNL     1      -1.821  -4.349   0.000  0.00  0.00    -0.268 OA
ATOM     23  N   UNL     1      -4.350  -3.483   0.000  0.00  0.00    -0.280 N 
ATOM     24  H   UNL     1      -4.811  -4.353   0.000  0.00  0.00    +0.155 HD
ATOM     25  C   UNL     1      -5.010  -2.135   0.000  0.00  0.00    +0.043 A 
ATOM     26  C   UNL     1      -6.452  -1.724   0.000  0.00  0.00    +0.024 A 
ENDBRANCH   7   6
BRANCH  11  12
ATOM     12  C   UNL     1       3.778   1.702   0.000  0.00  0.00    +0.001 A 
ATOM     13  C   UNL     1       5.277   1.756   0.000  0.00  0.00    +0.011 A 
ATOM     14  C   UNL     1       5.980   3.082   0.000  0.00  0.00    +0.016 A 
ATOM     15  C   UNL     1       5.183   4.353   0.000  0.00  0.00    +0.018 A 
ATOM     16 BR   UNL     1       5.885   5.678   0.000  0.00  0.00    -0.050 Br
ATOM     17  C   UNL     1       3.684   4.298   0.000  0.00  0.00    +0.016 A 
ATOM     18  C   UNL     1       2.982   2.973   0.000  0.00  0.00    +0.011 A 
ENDBRANCH  11  12
TORSDOF 2