REMARK  Name = 637729
REMARK  2 active torsions:
REMARK  status: ('A' for Active; 'I' for Inactive)
REMARK    1  A    between atoms: C_10  and  N_13
REMARK    2  A    between atoms: N_13  and  C_14
REMARK                            x       y       z     vdW  Elec       q    Type
REMARK                         _______ _______ _______ _____ _____    ______ ____
ROOT
ATOM      1  C   UNL     1      -2.324 -10.025   0.000  0.00  0.00    +0.012 A 
ATOM      2  C   UNL     1      -1.025  -9.274   0.000  0.00  0.00    +0.034 A 
ATOM      3  C   UNL     1       0.275 -10.025   0.000  0.00  0.00    +0.233 C 
ATOM      4  O   UNL     1       0.275 -11.525   0.000  0.00  0.00    -0.283 OA
ATOM      5  C   UNL     1       1.574  -9.274   0.000  0.00  0.00    +0.228 C 
ATOM      6  O   UNL     1       2.873 -10.025   0.000  0.00  0.00    -0.284 OA
ATOM      7  C   UNL     1       1.574  -7.774   0.000  0.00  0.00    +0.078 C 
ATOM      8  C   UNL     1       0.275  -7.024   0.000  0.00  0.00    +0.043 C 
ATOM     17  C   UNL     1      -1.025  -7.774   0.000  0.00  0.00    +0.007 A 
ATOM     18  C   UNL     1      -2.324  -7.024   0.000  0.00  0.00    +0.010 A 
ATOM     19  C   UNL     1      -3.623  -7.774   0.000  0.00  0.00    +0.001 A 
ATOM     20  C   UNL     1      -3.623  -9.274   0.000  0.00  0.00    +0.001 A 
ENDROOT
BRANCH   8   9
ATOM      9  N   UNL     1       0.275  -5.524   0.000  0.00  0.00    -0.313 N 
ATOM     10  H   UNL     1      -0.578  -5.032   0.000  0.00  0.00    +0.152 HD
BRANCH   9  11
ATOM     11  C   UNL     1       1.574  -4.774   0.000  0.00  0.00    +0.050 A 
ATOM     12  C   UNL     1       2.873  -5.524   0.000  0.00  0.00    +0.134 A 
ATOM     13  N   UNL     1       4.172  -4.774   0.000  0.00  0.00    -0.261 NA
ATOM     14  C   UNL     1       4.172  -3.275   0.000  0.00  0.00    +0.111 A 
ATOM     15  C   UNL     1       2.873  -2.525   0.000  0.00  0.00    +0.021 A 
ATOM     16  C   UNL     1       1.574  -3.275   0.000  0.00  0.00    +0.026 A 
ENDBRANCH   9  11
ENDBRANCH   8   9
TORSDOF 2