REMARK  Name = 604535
REMARK  8 active torsions:
REMARK  status: ('A' for Active; 'I' for Inactive)
REMARK    1  A    between atoms: C_8  and  C_26
REMARK    2  A    between atoms: C_10  and  C_12
REMARK    3  A    between atoms: C_12  and  C_14
REMARK    4  A    between atoms: C_12  and  C_15
REMARK    5  A    between atoms: C_15  and  S_16
REMARK    6  A    between atoms: S_16  and  C_17
REMARK    7  A    between atoms: C_17  and  C_19
REMARK    8  A    between atoms: C_26  and  O_28
REMARK                            x       y       z     vdW  Elec       q    Type
REMARK                         _______ _______ _______ _____ _____    ______ ____
ROOT
ATOM      1  C   UNL     1      -3.311  -4.953   0.000  0.00  0.00    +0.005 A 
ATOM      2  C   UNL     1      -3.364  -6.452   0.000  0.00  0.00    -0.024 A 
ATOM      3  C   UNL     1      -4.513  -7.416   0.000  0.00  0.00    +0.071 C 
ATOM      4  C   UNL     1      -3.951  -8.807   0.000  0.00  0.00    +0.194 C 
ATOM      9  N   UNL     1      -2.454  -8.702   0.000  0.00  0.00    -0.257 N 
ATOM     10  C   UNL     1      -1.490  -9.851   0.000  0.00  0.00    +0.224 C 
ATOM     23  O   UNL     1      -1.490 -11.351   0.000  0.00  0.00    -0.275 OA
ATOM     24  C   UNL     1      -2.092  -7.247   0.000  0.00  0.00    +0.040 A 
ATOM     25  C   UNL     1      -0.767  -6.542   0.000  0.00  0.00    +0.024 A 
ATOM     26  C   UNL     1      -0.715  -5.043   0.000  0.00  0.00    +0.002 A 
ATOM     27  C   UNL     1      -1.987  -4.248   0.000  0.00  0.00    +0.000 A 
ENDROOT
BRANCH   4   5
ATOM      5  C   UNL     1      -3.690 -10.284   0.000  0.00  0.00    +0.326 C 
ATOM      8  O   UNL     1      -4.840 -11.248   0.000  0.00  0.00    -0.249 OA
BRANCH   5   6
ATOM      6  O   UNL     1      -2.281 -10.797   0.000  0.00  0.00    -0.479 OA
ATOM      7  H   UNL     1      -2.118 -11.720   0.000  0.00  0.00    +0.295 HD
ENDBRANCH   5   6
ENDBRANCH   4   5
BRANCH  10  11
ATOM     11  C   UNL     1      -0.191  -9.101   0.000  0.00  0.00    +0.083 C 
ATOM     22  C   UNL     1       0.559 -10.400   0.000  0.00  0.00    +0.018 C 
BRANCH  11  12
ATOM     12  C   UNL     1       1.108  -8.351   0.000  0.00  0.00    +0.090 C 
BRANCH  12  13
ATOM     13  S   UNL     1       2.407  -9.101   0.000  0.00  0.00    -0.082 S 
BRANCH  13  14
ATOM     14  C   UNL     1       2.407 -10.601   0.000  0.00  0.00    +0.220 C 
ATOM     21  O   UNL     1       1.108 -11.351   0.000  0.00  0.00    -0.280 OA
BRANCH  14  15
ATOM     15  C   UNL     1       3.706 -11.351   0.000  0.00  0.00    +0.028 A 
ATOM     16  C   UNL     1       5.005 -10.601   0.000  0.00  0.00    +0.012 A 
ATOM     17  C   UNL     1       6.304 -11.351   0.000  0.00  0.00    +0.001 A 
ATOM     18  C   UNL     1       6.304 -12.851   0.000  0.00  0.00    +0.000 A 
ATOM     19  C   UNL     1       5.005 -13.601   0.000  0.00  0.00    +0.001 A 
ATOM     20  C   UNL     1       3.706 -12.851   0.000  0.00  0.00    +0.012 A 
ENDBRANCH  14  15
ENDBRANCH  13  14
ENDBRANCH  12  13
ENDBRANCH  11  12
ENDBRANCH  10  11
TORSDOF 7