REMARK  Name = 683792
REMARK  9 active torsions:
REMARK  status: ('A' for Active; 'I' for Inactive)
REMARK    1  A    between atoms: C_2  and  O_18
REMARK    2  A    between atoms: C_9  and  C_11
REMARK    3  A    between atoms: C_11  and  N_12
REMARK    4  A    between atoms: C_17  and  C_20
REMARK    5  A    between atoms: O_18  and  C_19
REMARK    6  A    between atoms: N_23  and  C_37
REMARK    7  A    between atoms: C_27  and  C_37
REMARK    8  A    between atoms: C_34  and  O_38
REMARK    9  A    between atoms: O_38  and  C_39
REMARK                            x       y       z     vdW  Elec       q    Type
REMARK                         _______ _______ _______ _____ _____    ______ ____
ROOT
ATOM      1 CL   UNL     1      16.064   2.324   0.000  0.00  0.00    -0.145 Cl
ATOM      2  H   UNL     1      17.394   2.324   0.000  0.00  0.00    +0.145 HD
ENDROOT
TORSDOF 0