REMARK  Name = 635366
REMARK  5 active torsions:
REMARK  status: ('A' for Active; 'I' for Inactive)
REMARK    1  A    between atoms: C_11  and  S_17
REMARK    2  A    between atoms: S_17  and  C_18
REMARK    3  A    between atoms: C_18  and  C_19
REMARK    4  A    between atoms: C_19  and  N_20
REMARK    5  A    between atoms: N_23  and  C_26
REMARK                            x       y       z     vdW  Elec       q    Type
REMARK                         _______ _______ _______ _____ _____    ______ ____
ROOT
ATOM      1 CL   UNL     1     -16.680   2.660   0.000  0.00  0.00    -0.084 Cl
ATOM      2  C   UNL     1     -15.184   2.772   0.000  0.00  0.00    +0.041 A 
ATOM      3  C   UNL     1     -14.339   1.532   0.000  0.00  0.00    +0.024 A 
ATOM      4  C   UNL     1     -12.843   1.644   0.000  0.00  0.00    -0.031 A 
ATOM      5  C   UNL     1     -12.192   0.293   0.000  0.00  0.00    +0.055 C 
ATOM      6  C   UNL     1     -10.730  -0.041   0.000  0.00  0.00    +0.082 C 
ATOM     17  C   UNL     1      -9.557   0.894   0.000  0.00  0.00    -0.020 A 
ATOM     18  C   UNL     1      -8.258   0.144   0.000  0.00  0.00    +0.006 A 
ATOM     19  C   UNL     1      -6.959   0.894   0.000  0.00  0.00    +0.000 A 
ATOM     20  C   UNL     1      -6.959   2.394   0.000  0.00  0.00    +0.001 A 
ATOM     21  C   UNL     1      -8.258   3.144   0.000  0.00  0.00    +0.015 A 
ATOM     22  C   UNL     1      -9.557   2.394   0.000  0.00  0.00    +0.017 A 
ATOM     23  S   UNL     1     -10.730   3.330   0.000  0.00  0.00    -0.089 S 
ATOM     24  C   UNL     1     -12.192   2.996   0.000  0.00  0.00    +0.016 A 
ATOM     25  C   UNL     1     -13.037   4.235   0.000  0.00  0.00    +0.017 A 
ATOM     26  C   UNL     1     -14.533   4.123   0.000  0.00  0.00    +0.021 A 
ENDROOT
BRANCH   6   7
ATOM      7  S   UNL     1     -10.396  -1.503   0.000  0.00  0.00    -0.151 S 
BRANCH   7   8
ATOM      8  C   UNL     1      -8.963  -1.945   0.000  0.00  0.00    +0.085 C 
BRANCH   8   9
ATOM      9  C   UNL     1      -7.863  -0.925   0.000  0.00  0.00    +0.095 C 
BRANCH   9  10
ATOM     10  N   UNL     1      -6.430  -1.367   0.000  0.00  0.00    -0.299 NA
ATOM     11  C   UNL     1      -6.096  -2.830   0.000  0.00  0.00    +0.100 C 
ATOM     12  C   UNL     1      -4.663  -3.272   0.000  0.00  0.00    +0.099 C 
ATOM     13  N   UNL     1      -3.563  -2.252   0.000  0.00  0.00    -0.303 NA
ATOM     14  C   UNL     1      -2.130  -2.694   0.000  0.00  0.00    +0.105 C 
ATOM     15  C   UNL     1      -3.897  -0.789   0.000  0.00  0.00    +0.099 C 
ATOM     16  C   UNL     1      -5.330  -0.347   0.000  0.00  0.00    +0.100 C 
ENDBRANCH   9  10
ENDBRANCH   8   9
ENDBRANCH   7   8
ENDBRANCH   6   7
TORSDOF 4