REMARK  Name = 620358
REMARK  6 active torsions:
REMARK  status: ('A' for Active; 'I' for Inactive)
REMARK    1  A    between atoms: C_4  and  C_10
REMARK    2  A    between atoms: C_4  and  C_11
REMARK    3  A    between atoms: C_6  and  C_8
REMARK    4  A    between atoms: C_11  and  O_26
REMARK    5  A    between atoms: C_18  and  O_23
REMARK    6  A    between atoms: O_26  and  C_27
REMARK                            x       y       z     vdW  Elec       q    Type
REMARK                         _______ _______ _______ _____ _____    ______ ____
ROOT
ATOM      1  C   UNL     1       1.334   7.386   0.000  0.00  0.00    +0.007 C 
ATOM      2  C   UNL     1       2.633   6.636   0.000  0.00  0.00    -0.025 C 
ATOM      3  C   UNL     1       2.633   8.136   0.000  0.00  0.00    +0.012 C 
ATOM      4  C   UNL     1       3.932   7.386   0.000  0.00  0.00    +0.009 C 
ATOM      5  C   UNL     1       3.932   8.886   0.000  0.00  0.00    +0.008 C 
ATOM      6  C   UNL     1       5.231   9.636   0.000  0.00  0.00    +0.040 C 
ATOM      7  C   UNL     1       6.530   8.886   0.000  0.00  0.00    +0.095 C 
ATOM     10  C   UNL     1       7.333   7.850   0.000  0.00  0.00    +0.020 C 
ATOM     11  C   UNL     1       8.822   8.029   0.000  0.00  0.00    +0.018 C 
ATOM     12  C   UNL     1       6.723   6.479   0.000  0.00  0.00    +0.168 C 
ATOM     13  O   UNL     1       7.473   5.180   0.000  0.00  0.00    -0.292 OA
ATOM     14  C   UNL     1       6.530   7.386   0.000  0.00  0.00    +0.054 C 
ATOM     15  C   UNL     1       5.231   6.636   0.000  0.00  0.00    +0.040 C 
ATOM     16  C   UNL     1       5.231   5.136   0.000  0.00  0.00    +0.015 C 
ATOM     17  C   UNL     1       3.932   4.386   0.000  0.00  0.00    +0.006 C 
ATOM     18  C   UNL     1       2.633   5.136   0.000  0.00  0.00    +0.012 C 
ATOM     19  C   UNL     1       1.334   4.386   0.000  0.00  0.00    +0.068 C 
ATOM     24  C   UNL     1       2.633   3.636   0.000  0.00  0.00    +0.023 C 
ATOM     25  C   UNL     1       0.035   5.136   0.000  0.00  0.00    +0.018 C 
ATOM     26  C   UNL     1       0.035   6.636   0.000  0.00  0.00    +0.002 C 
ENDROOT
BRANCH   7   8
ATOM      8  O   UNL     1       7.516  10.016   0.000  0.00  0.00    -0.384 OA
ATOM      9  H   UNL     1       8.468   9.829   0.000  0.00  0.00    +0.211 HD
ENDBRANCH   7   8
BRANCH  19  20
ATOM     20  C   UNL     1       0.584   3.087   0.000  0.00  0.00    +0.313 C 
ATOM     23  O   UNL     1       1.334   1.788   0.000  0.00  0.00    -0.250 OA
BRANCH  20  21
ATOM     21  O   UNL     1      -0.916   3.087   0.000  0.00  0.00    -0.468 OA
ATOM     22  C   UNL     1      -1.666   4.386   0.000  0.00  0.00    +0.280 C 
ENDBRANCH  20  21
ENDBRANCH  19  20
TORSDOF 3