REMARK  Name = 631583
REMARK  3 active torsions:
REMARK  status: ('A' for Active; 'I' for Inactive)
REMARK    1  A    between atoms: C_11  and  C_18
REMARK    2  A    between atoms: C_12  and  C_16
REMARK    3  A    between atoms: C_13  and  N_15
REMARK                            x       y       z     vdW  Elec       q    Type
REMARK                         _______ _______ _______ _____ _____    ______ ____
ROOT
ATOM      1  N   UNL     1       2.918   4.979   0.000  0.00  0.00    -0.251 NA
ATOM      2  C   UNL     1       4.217   4.229   0.000  0.00  0.00    +0.113 A 
ATOM      3  C   UNL     1       5.516   4.979   0.000  0.00  0.00    +0.160 A 
ATOM      4  O   UNL     1       5.516   6.479   0.000  0.00  0.00    -0.439 OA
ATOM      5  C   UNL     1       6.815   7.229   0.000  0.00  0.00    +0.199 C 
ATOM      9  C   UNL     1       8.114   6.479   0.000  0.00  0.00    +0.098 C 
ATOM     12  C   UNL     1       8.114   4.979   0.000  0.00  0.00    +0.098 C 
ATOM     19  C   UNL     1       6.815   4.229   0.000  0.00  0.00    +0.010 A 
ATOM     20  C   UNL     1       6.815   2.729   0.000  0.00  0.00    +0.009 A 
ATOM     21  C   UNL     1       5.516   1.979   0.000  0.00  0.00    +0.010 A 
ATOM     22  C   UNL     1       4.217   2.729   0.000  0.00  0.00    +0.004 A 
ATOM     23  C   UNL     1       2.918   1.979   0.000  0.00  0.00    +0.011 A 
ATOM     24  C   UNL     1       1.619   2.729   0.000  0.00  0.00    +0.020 A 
ATOM     25  C   UNL     1       1.619   4.229   0.000  0.00  0.00    +0.111 A 
ENDROOT
BRANCH  12  13
ATOM     13  C   UNL     1       8.627   3.569   0.000  0.00  0.00    -0.035 A 
ATOM     14  C   UNL     1       7.663   2.420   0.000  0.00  0.00    +0.004 A 
ATOM     15  C   UNL     1       8.176   1.011   0.000  0.00  0.00    +0.000 A 
ATOM     16  C   UNL     1       9.653   0.750   0.000  0.00  0.00    +0.000 A 
ATOM     17  C   UNL     1      10.617   1.899   0.000  0.00  0.00    +0.000 A 
ATOM     18  C   UNL     1      10.104   3.309   0.000  0.00  0.00    +0.004 A 
ENDBRANCH  12  13
BRANCH   5   6
ATOM      6  N   UNL     1       6.815   8.729   0.000  0.00  0.00    -0.328 N 
ATOM      7  H   UNL     1       5.962   9.221   0.000  0.00  0.00    +0.145 HD
ATOM      8  H   UNL     1       7.668   9.221   0.000  0.00  0.00    +0.145 HD
ENDBRANCH   5   6
BRANCH   9  10
ATOM     10  C   UNL     1       9.413   7.229   0.000  0.00  0.00    +0.101 C 
ATOM     11  N   UNL     1      10.712   7.979   0.000  0.00  0.00    -0.191 NA
ENDBRANCH   9  10
TORSDOF 3