REMARK  Name = 640974
REMARK  7 active torsions:
REMARK  status: ('A' for Active; 'I' for Inactive)
REMARK    1  A    between atoms: C_7  and  C_11
REMARK    2  A    between atoms: C_11  and  C_12
REMARK    3  A    between atoms: C_11  and  C_21
REMARK    4  A    between atoms: C_12  and  C_14
REMARK    5  A    between atoms: C_21  and  C_23
REMARK    6  A    between atoms: N_25  and  C_26
REMARK    7  A    between atoms: C_31  and  C_32
REMARK                            x       y       z     vdW  Elec       q    Type
REMARK                         _______ _______ _______ _____ _____    ______ ____
ROOT
ATOM      8  C   UNL     1       5.827   8.234   0.000  0.00  0.00    +0.181 C 
ENDROOT
BRANCH   8   7
ATOM      1  C   UNL     1       9.048   3.623   0.000  0.00  0.00    +0.001 A 
ATOM      2  C   UNL     1       7.581   3.311   0.000  0.00  0.00    +0.015 A 
ATOM      3  C   UNL     1       6.577   4.426   0.000  0.00  0.00    +0.066 A 
ATOM      4  C   UNL     1       5.077   4.426   0.000  0.00  0.00    +0.340 C 
ATOM      5  O   UNL     1       4.195   3.212   0.000  0.00  0.00    -0.245 OA
ATOM      6  O   UNL     1       4.613   5.852   0.000  0.00  0.00    -0.452 OA
ATOM      7  C   UNL     1       5.827   6.734   0.000  0.00  0.00    +0.226 C 
ATOM     32  C   UNL     1       7.040   5.852   0.000  0.00  0.00    +0.008 A 
ATOM     33  C   UNL     1       8.508   6.164   0.000  0.00  0.00    +0.008 A 
ATOM     34  C   UNL     1       9.511   5.049   0.000  0.00  0.00    +0.000 A 
ENDBRANCH   8   7
BRANCH   8   9
ATOM      9  C   UNL     1       4.528   8.984   0.000  0.00  0.00    +0.232 C 
ATOM     22  O   UNL     1       4.528  10.484   0.000  0.00  0.00    -0.286 OA
BRANCH   9  10
ATOM     10  C   UNL     1       3.229   8.234   0.000  0.00  0.00    +0.285 C 
ATOM     11  N   UNL     1       1.930   8.984   0.000  0.00  0.00    -0.278 N 
ATOM     12  H   UNL     1       1.930   9.968   0.000  0.00  0.00    +0.155 HD
ATOM     21  O   UNL     1       3.229   6.734   0.000  0.00  0.00    -0.267 OA
BRANCH  11  13
ATOM     13  C   UNL     1       0.631   8.234   0.000  0.00  0.00    +0.051 A 
ATOM     14  C   UNL     1      -0.668   8.984   0.000  0.00  0.00    +0.073 A 
ATOM     17  C   UNL     1      -1.967   8.234   0.000  0.00  0.00    +0.021 A 
ATOM     18  C   UNL     1      -1.967   6.734   0.000  0.00  0.00    +0.001 A 
ATOM     19  C   UNL     1      -0.668   5.984   0.000  0.00  0.00    +0.002 A 
ATOM     20  C   UNL     1       0.631   6.734   0.000  0.00  0.00    +0.024 A 
BRANCH  14  15
ATOM     15  C   UNL     1      -0.668  10.484   0.000  0.00  0.00    +0.101 C 
ATOM     16  N   UNL     1      -0.668  11.984   0.000  0.00  0.00    -0.191 NA
ENDBRANCH  14  15
ENDBRANCH  11  13
ENDBRANCH   9  10
ENDBRANCH   8   9
BRANCH   8  23
ATOM     23  C   UNL     1       7.126   8.984   0.000  0.00  0.00    +0.180 C 
ATOM     31  O   UNL     1       8.425   8.234   0.000  0.00  0.00    -0.291 OA
BRANCH  23  24
ATOM     24  C   UNL     1       7.126  10.484   0.000  0.00  0.00    +0.053 A 
ATOM     25  C   UNL     1       5.827  11.234   0.000  0.00  0.00    +0.014 A 
ATOM     26  C   UNL     1       5.827  12.734   0.000  0.00  0.00    +0.001 A 
ATOM     27  C   UNL     1       7.126  13.484   0.000  0.00  0.00    +0.003 A 
ATOM     28  C   UNL     1       8.425  12.734   0.000  0.00  0.00    +0.039 A 
ATOM     29  C   UNL     1       8.425  11.234   0.000  0.00  0.00    +0.134 A 
ATOM     30  F   UNL     1       9.724  10.484   0.000  0.00  0.00    -0.205 F 
ENDBRANCH  23  24
ENDBRANCH   8  23
TORSDOF 7