REMARK  Name = 51148
REMARK  0 active torsions:
REMARK  status: ('A' for Active; 'I' for Inactive)
REMARK                            x       y       z     vdW  Elec       q    Type
REMARK                         _______ _______ _______ _____ _____    ______ ____
ROOT
ATOM      1 CD   UNL     1      -2.525  -0.275   0.000  0.00  0.00    +0.000 Cd
ATOM      2 CL   UNL     1      -1.025  -0.275   0.000  0.00  0.00    +0.000 Cl
ATOM      3 CL   UNL     1      -3.275   1.025   0.000  0.00  0.00    +0.000 Cl
ENDROOT
TORSDOF 0