REMARK  Name = 647418
REMARK  10 active torsions:
REMARK  status: ('A' for Active; 'I' for Inactive)
REMARK    1  A    between atoms: C_7  and  O_11
REMARK    2  A    between atoms: C_8  and  C_12
REMARK    3  A    between atoms: C_12  and  C_13
REMARK    4  A    between atoms: C_12  and  C_19
REMARK    5  A    between atoms: C_19  and  C_20
REMARK    6  A    between atoms: C_19  and  C_27
REMARK    7  A    between atoms: C_20  and  N_22
REMARK    8  A    between atoms: C_27  and  C_31
REMARK    9  A    between atoms: N_28  and  N_29
REMARK   10  A    between atoms: N_29  and  C_30
REMARK                            x       y       z     vdW  Elec       q    Type
REMARK                         _______ _______ _______ _____ _____    ______ ____
ROOT
ATOM      1 CL   UNL     1       0.750   0.750   0.000  0.00  0.00    -0.145 Cl
ATOM      2  H   UNL     1       2.080   0.750   0.000  0.00  0.00    +0.145 HD
ENDROOT
TORSDOF 0