REMARK  Name = 629971
REMARK  4 active torsions:
REMARK  status: ('A' for Active; 'I' for Inactive)
REMARK    1  A    between atoms: C_3  and  N_7
REMARK    2  A    between atoms: C_23  and  C_25
REMARK    3  A    between atoms: C_23  and  O_26
REMARK    4  A    between atoms: C_25  and  C_27
REMARK                            x       y       z     vdW  Elec       q    Type
REMARK                         _______ _______ _______ _____ _____    ______ ____
ROOT
ATOM      1  C   UNL     1     -15.129   1.081   0.000  0.00  0.00    +0.004 A 
ATOM      2  C   UNL     1     -13.830   0.332   0.000  0.00  0.00    +0.028 A 
ATOM      3  C   UNL     1     -12.531   1.081   0.000  0.00  0.00    +0.073 A 
ATOM      4  N   UNL     1     -11.232   0.332   0.000  0.00  0.00    -0.245 NA
ATOM      5  C   UNL     1      -9.933   1.081   0.000  0.00  0.00    +0.093 A 
ATOM      6  C   UNL     1      -8.507   0.618   0.000  0.00  0.00    +0.071 A 
ATOM      7  C   UNL     1      -7.896  -0.752   0.000  0.00  0.00    +0.035 A 
ATOM      8  C   UNL     1      -6.405  -0.909   0.000  0.00  0.00    +0.008 A 
ATOM      9  C   UNL     1      -5.795  -2.279   0.000  0.00  0.00    +0.188 C 
ATOM     14  C   UNL     1      -4.303  -2.436   0.000  0.00  0.00    +0.344 C 
ATOM     15  O   UNL     1      -3.693  -3.807   0.000  0.00  0.00    -0.247 OA
ATOM     16  O   UNL     1      -3.421  -1.223   0.000  0.00  0.00    -0.457 OA
ATOM     17  C   UNL     1      -4.031   0.148   0.000  0.00  0.00    +0.273 C 
ATOM     18  C   UNL     1      -5.523   0.304   0.000  0.00  0.00    +0.061 A 
ATOM     19  C   UNL     1      -6.133   1.675   0.000  0.00  0.00    +0.259 A 
ATOM     20  O   UNL     1      -5.251   2.888   0.000  0.00  0.00    -0.267 OA
ATOM     21  N   UNL     1      -7.625   1.831   0.000  0.00  0.00    -0.302 N 
ATOM     22  C   UNL     1      -8.507   3.045   0.000  0.00  0.00    +0.162 C 
ATOM     23  C   UNL     1      -9.933   2.582   0.000  0.00  0.00    +0.000 A 
ATOM     24  C   UNL     1     -11.232   3.332   0.000  0.00  0.00    +0.019 A 
ATOM     25  C   UNL     1     -12.531   2.582   0.000  0.00  0.00    +0.021 A 
ATOM     26  C   UNL     1     -13.830   3.332   0.000  0.00  0.00    +0.034 A 
ATOM     30  C   UNL     1     -15.129   2.582   0.000  0.00  0.00    +0.023 A 
ENDROOT
BRANCH  26  27
ATOM     27  N   UNL     1     -13.830   4.832   0.000  0.00  0.00    -0.357 N 
ATOM     28  H   UNL     1     -14.683   5.324   0.000  0.00  0.00    +0.142 HD
ATOM     29  H   UNL     1     -12.978   5.324   0.000  0.00  0.00    +0.142 HD
ENDBRANCH  26  27
BRANCH   9  10
ATOM     10  O   UNL     1      -5.184  -3.650   0.000  0.00  0.00    -0.373 OA
ATOM     11  H   UNL     1      -5.755  -4.434   0.000  0.00  0.00    +0.211 HD
ENDBRANCH   9  10
BRANCH   9  12
ATOM     12  C   UNL     1      -7.165  -2.890   0.000  0.00  0.00    +0.048 C 
ATOM     13  C   UNL     1      -7.322  -4.381   0.000  0.00  0.00    +0.007 C 
ENDBRANCH   9  12
TORSDOF 3