REMARK  Name = 627708
REMARK  4 active torsions:
REMARK  status: ('A' for Active; 'I' for Inactive)
REMARK    1  A    between atoms: C_4  and  N_16
REMARK    2  A    between atoms: C_5  and  S_13
REMARK    3  A    between atoms: C_7  and  S_13
REMARK    4  A    between atoms: C_10  and  C_19
REMARK                            x       y       z     vdW  Elec       q    Type
REMARK                         _______ _______ _______ _____ _____    ______ ____
ROOT
ATOM      3  S   UNL     1      -5.946  -2.049   0.000  0.00  0.00    +0.031 S 
ATOM      4  O   UNL     1      -5.196  -0.750   0.000  0.00  0.00    -0.164 OA
ATOM      5  O   UNL     1      -7.245  -1.299   0.000  0.00  0.00    -0.164 OA
ENDROOT
BRANCH   3   6
ATOM      6  C   UNL     1      -4.647  -2.799   0.000  0.00  0.00    +0.094 A 
ATOM      7  C   UNL     1      -3.348  -2.049   0.000  0.00  0.00    +0.027 A 
ATOM      8  C   UNL     1      -2.049  -2.799   0.000  0.00  0.00    +0.005 A 
ATOM      9  C   UNL     1      -2.049  -4.299   0.000  0.00  0.00    -0.050 A 
ATOM     10  C   UNL     1      -0.750  -5.049   0.000  0.00  0.00    +0.044 C 
ATOM     11  C   UNL     1      -3.348  -5.049   0.000  0.00  0.00    +0.005 A 
ATOM     12  C   UNL     1      -4.647  -4.299   0.000  0.00  0.00    +0.027 A 
ENDBRANCH   3   6
BRANCH   3   2
ATOM      1  C   UNL     1      -5.946  -4.647   0.000  0.00  0.00    +0.034 A 
ATOM      2  C   UNL     1      -6.696  -3.348   0.000  0.00  0.00    +0.170 A 
ATOM     13  C   UNL     1      -8.196  -3.348   0.000  0.00  0.00    +0.298 A 
ATOM     17  C   UNL     1      -8.946  -4.647   0.000  0.00  0.00    +0.086 A 
ATOM     18  C   UNL     1      -8.196  -5.946   0.000  0.00  0.00    +0.007 A 
ATOM     19  C   UNL     1      -6.696  -5.946   0.000  0.00  0.00    +0.002 A 
BRANCH  13  14
ATOM     14  N   UNL     1      -8.946  -2.049   0.000  0.00  0.00    +0.082 N 
ATOM     15  O   UNL     1      -8.196  -0.750   0.000  0.00  0.00    +0.042 OA
ATOM     16  O   UNL     1     -10.446  -2.049   0.000  0.00  0.00    -0.576 OA
ENDBRANCH  13  14
ENDBRANCH   3   2
TORSDOF 3