REMARK  Name = 671394
REMARK  13 active torsions:
REMARK  status: ('A' for Active; 'I' for Inactive)
REMARK    1  A    between atoms: N_2  and  C_10
REMARK    2  A    between atoms: N_5  and  C_7
REMARK    3  A    between atoms: N_8  and  C_32
REMARK    4  A    between atoms: N_9  and  C_26
REMARK    5  A    between atoms: C_13  and  N_23
REMARK    6  A    between atoms: C_18  and  O_21
REMARK    7  A    between atoms: O_21  and  C_22
REMARK    8  A    between atoms: N_23  and  C_24
REMARK    9  A    between atoms: N_23  and  C_25
REMARK   10  A    between atoms: C_29  and  O_38
REMARK   11  A    between atoms: C_35  and  O_40
REMARK   12  A    between atoms: O_38  and  C_39
REMARK   13  A    between atoms: O_40  and  C_41
REMARK                            x       y       z     vdW  Elec       q    Type
REMARK                         _______ _______ _______ _____ _____    ______ ____
ROOT
ATOM      1  C   UNL     1       1.327 -11.101   0.000  0.00  0.00    +0.333 C 
ATOM      2  S   UNL     1       1.015  -9.634   0.000  0.00  0.00    +0.039 S 
ATOM      3  N   UNL     1       2.698 -11.711   0.000  0.00  0.00    -0.106 N 
ATOM     13  C   UNL     1       2.541 -13.203   0.000  0.00  0.00    +0.419 C 
ATOM     14  N   UNL     1       3.656 -14.207   0.000  0.00  0.00    -0.034 NA
ATOM     23  C   UNL     1       1.074 -13.515   0.000  0.00  0.00    +0.419 C 
ATOM     24  N   UNL     1       0.464 -14.885   0.000  0.00  0.00    -0.034 NA
ATOM     33  N   UNL     1       0.324 -12.216   0.000  0.00  0.00    -0.106 N 
ENDROOT
BRANCH   3   4
ATOM      4  C   UNL     1       3.997 -10.961   0.000  0.00  0.00    +0.131 A 
ATOM      5  C   UNL     1       3.997  -9.461   0.000  0.00  0.00    +0.051 A 
ATOM      6  C   UNL     1       5.296  -8.711   0.000  0.00  0.00    +0.027 A 
ATOM      7  C   UNL     1       6.595  -9.461   0.000  0.00  0.00    +0.029 A 
ATOM     11  C   UNL     1       6.595 -10.961   0.000  0.00  0.00    +0.027 A 
ATOM     12  C   UNL     1       5.296 -11.711   0.000  0.00  0.00    +0.051 A 
BRANCH   7   8
ATOM      8  N   UNL     1       7.894  -8.711   0.000  0.00  0.00    -0.336 N 
ATOM      9  C   UNL     1       9.193  -9.461   0.000  0.00  0.00    +0.129 C 
ATOM     10  C   UNL     1       7.894  -7.211   0.000  0.00  0.00    +0.129 C 
ENDBRANCH   7   8
ENDBRANCH   3   4
BRANCH  14  15
ATOM     15  C   UNL     1       4.119 -15.633   0.000  0.00  0.00    +0.177 A 
ATOM     16  C   UNL     1       3.115 -16.748   0.000  0.00  0.00    +0.059 A 
ATOM     17  C   UNL     1       3.579 -18.174   0.000  0.00  0.00    +0.050 A 
ATOM     18  C   UNL     1       5.046 -18.486   0.000  0.00  0.00    +0.120 A 
ATOM     21  C   UNL     1       6.050 -17.372   0.000  0.00  0.00    +0.050 A 
ATOM     22  C   UNL     1       5.586 -15.945   0.000  0.00  0.00    +0.059 A 
BRANCH  18  19
ATOM     19  O   UNL     1       5.510 -19.913   0.000  0.00  0.00    -0.495 OA
ATOM     20  C   UNL     1       4.506 -21.028   0.000  0.00  0.00    +0.277 C 
ENDBRANCH  18  19
ENDBRANCH  14  15
BRANCH  24  25
ATOM     25  C   UNL     1       0.620 -16.377   0.000  0.00  0.00    +0.177 A 
ATOM     26  C   UNL     1       1.991 -16.987   0.000  0.00  0.00    +0.059 A 
ATOM     27  C   UNL     1       2.147 -18.479   0.000  0.00  0.00    +0.050 A 
ATOM     28  C   UNL     1       0.934 -19.360   0.000  0.00  0.00    +0.120 A 
ATOM     31  C   UNL     1      -0.436 -18.750   0.000  0.00  0.00    +0.050 A 
ATOM     32  C   UNL     1      -0.593 -17.259   0.000  0.00  0.00    +0.059 A 
BRANCH  28  29
ATOM     29  O   UNL     1       1.091 -20.852   0.000  0.00  0.00    -0.495 OA
ATOM     30  C   UNL     1      -0.123 -21.734   0.000  0.00  0.00    +0.277 C 
ENDBRANCH  28  29
ENDBRANCH  24  25
BRANCH  33  34
ATOM     34  C   UNL     1      -1.168 -12.059   0.000  0.00  0.00    +0.131 A 
ATOM     35  C   UNL     1      -1.778 -10.689   0.000  0.00  0.00    +0.053 A 
ATOM     36  C   UNL     1      -3.270 -10.532   0.000  0.00  0.00    +0.049 A 
ATOM     37  C   UNL     1      -4.152 -11.745   0.000  0.00  0.00    +0.120 A 
ATOM     40  C   UNL     1      -3.542 -13.116   0.000  0.00  0.00    +0.049 A 
ATOM     41  C   UNL     1      -2.050 -13.273   0.000  0.00  0.00    +0.053 A 
BRANCH  37  38
ATOM     38  O   UNL     1      -5.644 -11.589   0.000  0.00  0.00    -0.495 OA
ATOM     39  C   UNL     1      -6.525 -12.802   0.000  0.00  0.00    +0.277 C 
ENDBRANCH  37  38
ENDBRANCH  33  34
TORSDOF 8