REMARK  Name = 666526
REMARK  6 active torsions:
REMARK  status: ('A' for Active; 'I' for Inactive)
REMARK    1  A    between atoms: C_1  and  C_2
REMARK    2  A    between atoms: C_2  and  C_3
REMARK    3  A    between atoms: C_3  and  C_4
REMARK    4  A    between atoms: C_4  and  C_5
REMARK    5  A    between atoms: C_5  and  C_6
REMARK    6  A    between atoms: C_6  and  C_7
REMARK                            x       y       z     vdW  Elec       q    Type
REMARK                         _______ _______ _______ _____ _____    ______ ____
ROOT
ATOM      7  C   UNL     1       7.500   4.647   0.000  0.00  0.00    +0.039 C 
ATOM      8  C   UNL     1       8.561   3.587   0.000  0.00  0.00    +0.179 C 
ATOM      9 CL   UNL     1       9.621   2.526   0.000  0.00  0.00    -0.092 Cl
ATOM     10 CL   UNL     1       7.500   2.526   0.000  0.00  0.00    -0.092 Cl
ATOM     11  C   UNL     1       9.621   4.647   0.000  0.00  0.00    +0.169 C 
ATOM     12  O   UNL     1      11.121   4.647   0.000  0.00  0.00    -0.294 OA
ATOM     13  C   UNL     1       8.561   5.708   0.000  0.00  0.00    +0.084 C 
ENDROOT
BRANCH   7   6
ATOM      6  C   UNL     1       6.000   4.647   0.000  0.00  0.00    +0.007 C 
BRANCH   6   5
ATOM      5  C   UNL     1       5.250   3.348   0.000  0.00  0.00    +0.000 C 
BRANCH   5   4
ATOM      4  C   UNL     1       3.750   3.348   0.000  0.00  0.00    +0.000 C 
BRANCH   4   3
ATOM      3  C   UNL     1       3.000   2.049   0.000  0.00  0.00    -0.000 C 
BRANCH   3   2
ATOM      1  C   UNL     1       0.750   0.750   0.000  0.00  0.00    +0.004 C 
ATOM      2  C   UNL     1       1.500   2.049   0.000  0.00  0.00    -0.003 C 
ENDBRANCH   3   2
ENDBRANCH   4   3
ENDBRANCH   5   4
ENDBRANCH   6   5
ENDBRANCH   7   6
TORSDOF 5