REMARK  Name = 640391
REMARK  8 active torsions:
REMARK  status: ('A' for Active; 'I' for Inactive)
REMARK    1  A    between atoms: C_2  and  C_16
REMARK    2  A    between atoms: C_5  and  C_13
REMARK    3  A    between atoms: N_7  and  C_8
REMARK    4  A    between atoms: N_7  and  C_15
REMARK    5  A    between atoms: N_7  and  C_16
REMARK    6  A    between atoms: N_9  and  C_10
REMARK    7  A    between atoms: N_9  and  C_12
REMARK    8  A    between atoms: N_9  and  C_13
REMARK                            x       y       z     vdW  Elec       q    Type
REMARK                         _______ _______ _______ _____ _____    ______ ____
ROOT
ATOM      1 CL   UNL     1      -0.442  -3.485   0.000  0.00  0.00    -0.145 Cl
ATOM      2  H   UNL     1       0.888  -3.485   0.000  0.00  0.00    +0.145 HD
ENDROOT
TORSDOF 0