REMARK  Name = 622690
REMARK  5 active torsions:
REMARK  status: ('A' for Active; 'I' for Inactive)
REMARK    1  A    between atoms: N_6  and  C_7
REMARK    2  A    between atoms: N_6  and  C_8
REMARK    3  A    between atoms: C_11  and  C_15
REMARK    4  A    between atoms: C_13  and  C_14
REMARK    5  A    between atoms: CL_16  and  O_17
REMARK                            x       y       z     vdW  Elec       q    Type
REMARK                         _______ _______ _______ _____ _____    ______ ____
ROOT
ATOM      1 CL   UNL     1       6.606   8.219   0.000  0.00  0.00    +0.391 Cl
ATOM      2  O   UNL     1       7.488   7.005   0.000  0.00  0.00    -0.132 OA
ATOM      3  O   UNL     1       5.393   7.337   0.000  0.00  0.00    -0.132 OA
ATOM      4  O   UNL     1       5.725   9.432   0.000  0.00  0.00    -0.132 OA
ENDROOT
BRANCH   1   5
ATOM      5  O   UNL     1       7.820   9.100   0.000  0.00  0.00    -0.237 OA
ATOM      6  H   UNL     1       8.706   8.706   0.000  0.00  0.00    +0.242 HD
ENDBRANCH   1   5
TORSDOF 1