REMARK  Name = 65423
REMARK  5 active torsions:
REMARK  status: ('A' for Active; 'I' for Inactive)
REMARK    1  A    between atoms: N_5  and  C1*_11
REMARK    2  A    between atoms: C2*_12  and  O2*_18
REMARK    3  A    between atoms: C3*_13  and  O3*_17
REMARK    4  A    between atoms: C4*_14  and  C5*_16
REMARK    5  A    between atoms: O5*_15  and  C5*_16
REMARK                            x       y       z     vdW  Elec       q    Type
REMARK                         _______ _______ _______ _____ _____    ______ ____
ROOT
ATOM      9  C1* UNL     1       6.162  -3.290   0.000  0.00  0.00    +0.253 C 
ATOM     10  C2* UNL     1       7.589  -3.753   0.000  0.00  0.00    +0.195 C 
ATOM     13  C3* UNL     1       7.589  -5.253   0.000  0.00  0.00    +0.178 C 
ATOM     16  C4* UNL     1       6.162  -5.717   0.000  0.00  0.00    +0.177 C 
ATOM     20  O4* UNL     1       5.281  -4.503   0.000  0.00  0.00    -0.346 OA
ENDROOT
BRANCH   9   8
ATOM      1  N   UNL     1       1.674   0.101   0.000  0.00  0.00    -0.241 NA
ATOM      2  C   UNL     1       1.674  -1.400   0.000  0.00  0.00    +0.223 A 
ATOM      3  N   UNL     1       2.973  -2.150   0.000  0.00  0.00    -0.216 NA
ATOM      4  C   UNL     1       4.272  -1.400   0.000  0.00  0.00    +0.165 A 
ATOM      5  C   UNL     1       4.272   0.101   0.000  0.00  0.00    +0.126 A 
ATOM      6  N   UNL     1       5.699   0.564   0.000  0.00  0.00    -0.232 NA
ATOM      7  C   UNL     1       6.580  -0.649   0.000  0.00  0.00    +0.203 A 
ATOM      8  N   UNL     1       5.699  -1.863   0.000  0.00  0.00    -0.286 N 
ATOM     21  C   UNL     1       2.973   0.851   0.000  0.00  0.00    +0.144 A 
ENDBRANCH   9   8
BRANCH  10  11
ATOM     11  O2* UNL     1       8.802  -2.872   0.000  0.00  0.00    -0.385 OA
ATOM     12  H2* UNL     1       9.688  -3.266   0.000  0.00  0.00    +0.210 HD
ENDBRANCH  10  11
BRANCH  13  14
ATOM     14  O3* UNL     1       8.802  -6.135   0.000  0.00  0.00    -0.386 OA
ATOM     15  H3* UNL     1       8.701  -7.099   0.000  0.00  0.00    +0.210 HD
ENDBRANCH  13  14
BRANCH  16  17
ATOM     17  C5* UNL     1       5.699  -7.143   0.000  0.00  0.00    +0.190 C 
BRANCH  17  18
ATOM     18  O5* UNL     1       6.702  -8.258   0.000  0.00  0.00    -0.392 OA
ATOM     19  H5* UNL     1       6.403  -9.181   0.000  0.00  0.00    +0.210 HD
ENDBRANCH  17  18
ENDBRANCH  16  17
TORSDOF 5