REMARK  Name = 647363
REMARK  11 active torsions:
REMARK  status: ('A' for Active; 'I' for Inactive)
REMARK    1  A    between atoms: C_5  and  C_10
REMARK    2  A    between atoms: C_10  and  O_11
REMARK    3  A    between atoms: O_11  and  C_12
REMARK    4  A    between atoms: C_12  and  C_14
REMARK    5  A    between atoms: C_15  and  C_16
REMARK    6  A    between atoms: C_19  and  O_25
REMARK    7  A    between atoms: C_20  and  O_24
REMARK    8  A    between atoms: C_21  and  O_22
REMARK    9  A    between atoms: O_22  and  C_23
REMARK   10  A    between atoms: O_24  and  C_27
REMARK   11  A    between atoms: O_25  and  C_26
REMARK                            x       y       z     vdW  Elec       q    Type
REMARK                         _______ _______ _______ _____ _____    ______ ____
ROOT
ATOM      7  C   UNL     1      -9.241   2.067   0.000  0.00  0.00    +0.139 C 
ATOM      8  C   UNL     1      -7.814   2.530   0.000  0.00  0.00    +0.055 C 
ENDROOT
BRANCH   7   6
ATOM      1  C   UNL     1     -11.158   5.541   0.000  0.00  0.00    +0.167 A 
ATOM      2  O   UNL     1     -11.158   7.041   0.000  0.00  0.00    -0.453 OA
ATOM      3  C   UNL     1     -12.585   7.505   0.000  0.00  0.00    +0.466 C 
ATOM      4  O   UNL     1     -13.466   6.291   0.000  0.00  0.00    -0.453 OA
ATOM      5  C   UNL     1     -10.043   4.538   0.000  0.00  0.00    +0.061 A 
ATOM      6  C   UNL     1     -10.355   3.071   0.000  0.00  0.00    +0.021 A 
ATOM     25  C   UNL     1     -11.782   2.607   0.000  0.00  0.00    +0.015 A 
ATOM     26  C   UNL     1     -12.897   3.611   0.000  0.00  0.00    +0.050 A 
ATOM     27  C   UNL     1     -12.585   5.078   0.000  0.00  0.00    +0.166 A 
ENDBRANCH   7   6
BRANCH   8   9
ATOM      9  C   UNL     1      -6.699   1.527   0.000  0.00  0.00    -0.014 A 
ATOM     10  C   UNL     1      -5.273   1.990   0.000  0.00  0.00    +0.057 A 
ATOM     11  C   UNL     1      -4.158   0.987   0.000  0.00  0.00    +0.166 A 
ATOM     14  C   UNL     1      -4.470  -0.481   0.000  0.00  0.00    +0.204 A 
ATOM     17  C   UNL     1      -5.896  -0.944   0.000  0.00  0.00    +0.166 A 
ATOM     20  C   UNL     1      -7.011   0.059   0.000  0.00  0.00    +0.057 A 
BRANCH  11  12
ATOM     12  O   UNL     1      -2.731   1.450   0.000  0.00  0.00    -0.491 OA
ATOM     13  C   UNL     1      -1.617   0.446   0.000  0.00  0.00    +0.277 C 
ENDBRANCH  11  12
BRANCH  14  15
ATOM     15  O   UNL     1      -3.355  -1.484   0.000  0.00  0.00    -0.488 OA
ATOM     16  C   UNL     1      -3.667  -2.952   0.000  0.00  0.00    +0.277 C 
ENDBRANCH  14  15
BRANCH  17  18
ATOM     18  O   UNL     1      -6.208  -2.412   0.000  0.00  0.00    -0.491 OA
ATOM     19  C   UNL     1      -7.635  -2.875   0.000  0.00  0.00    +0.277 C 
ENDBRANCH  17  18
ENDBRANCH   8   9
BRANCH   7  21
ATOM     21  O   UNL     1      -9.552   0.600   0.000  0.00  0.00    -0.425 OA
BRANCH  21  22
ATOM     22  C   UNL     1     -10.979   0.136   0.000  0.00  0.00    +0.309 C 
ATOM     23  O   UNL     1     -12.094   1.140   0.000  0.00  0.00    -0.251 OA
ATOM     24  C   UNL     1     -11.291  -1.331   0.000  0.00  0.00    +0.136 C 
ENDBRANCH  21  22
ENDBRANCH   7  21
TORSDOF 7