REMARK  Name = 620277
REMARK  9 active torsions:
REMARK  status: ('A' for Active; 'I' for Inactive)
REMARK    1  A    between atoms: C_1  and  C_17
REMARK    2  A    between atoms: C_4  and  N_7
REMARK    3  A    between atoms: N_7  and  C_8
REMARK    4  A    between atoms: N_7  and  C_9
REMARK    5  A    between atoms: C_8  and  C_12
REMARK    6  A    between atoms: C_9  and  C_10
REMARK    7  A    between atoms: C_10  and  C_11
REMARK    8  A    between atoms: C_12  and  C_13
REMARK    9  A    between atoms: N_18  and  C_19
REMARK                            x       y       z     vdW  Elec       q    Type
REMARK                         _______ _______ _______ _____ _____    ______ ____
ROOT
ATOM      1  C   UNL     1       2.873  11.525   0.000  0.00  0.00    -0.007 A 
ATOM     11  C   UNL     1       4.172  10.775   0.000  0.00  0.00    +0.011 A 
ATOM     12  C   UNL     1       4.172   9.274   0.000  0.00  0.00    +0.024 A 
ATOM     13  C   UNL     1       2.873   8.524   0.000  0.00  0.00    +0.030 A 
ATOM     23  C   UNL     1       1.574   9.274   0.000  0.00  0.00    +0.024 A 
ATOM     24  C   UNL     1       1.574  10.775   0.000  0.00  0.00    +0.011 A 
ENDROOT
BRANCH   1   2
ATOM      2  C   UNL     1       2.873  13.025   0.000  0.00  0.00    +0.119 C 
ATOM      3  N   UNL     1       4.172  13.775   0.000  0.00  0.00    -0.255 NA
BRANCH   3   4
ATOM      4  C   UNL     1       5.471  13.025   0.000  0.00  0.00    +0.064 A 
ATOM      5  C   UNL     1       6.770  13.775   0.000  0.00  0.00    +0.030 A 
ATOM      6  C   UNL     1       8.069  13.025   0.000  0.00  0.00    +0.040 A 
ATOM      7  C   UNL     1       8.069  11.525   0.000  0.00  0.00    +0.124 A 
ATOM      8  C   UNL     1       6.770  10.775   0.000  0.00  0.00    +0.040 A 
ATOM      9  F   UNL     1       9.368  10.775   0.000  0.00  0.00    -0.205 F 
ATOM     10  C   UNL     1       5.471  11.525   0.000  0.00  0.00    +0.030 A 
ENDBRANCH   3   4
ENDBRANCH   1   2
BRANCH  13  14
ATOM     14  N   UNL     1       2.873   7.024   0.000  0.00  0.00    -0.328 N 
BRANCH  14  15
ATOM     15  C   UNL     1       4.172   6.274   0.000  0.00  0.00    +0.120 C 
BRANCH  15  16
ATOM     16  C   UNL     1       5.471   7.024   0.000  0.00  0.00    +0.137 C 
BRANCH  16  17
ATOM     17  C   UNL     1       6.770   6.274   0.000  0.00  0.00    +0.064 C 
ATOM     18  N   UNL     1       8.069   5.524   0.000  0.00  0.00    -0.197 NA
ENDBRANCH  16  17
ENDBRANCH  15  16
ENDBRANCH  14  15
BRANCH  14  19
ATOM     19  C   UNL     1       1.574   6.274   0.000  0.00  0.00    +0.120 C 
BRANCH  19  20
ATOM     20  C   UNL     1       0.275   7.024   0.000  0.00  0.00    +0.137 C 
BRANCH  20  21
ATOM     21  C   UNL     1      -1.025   6.274   0.000  0.00  0.00    +0.064 C 
ATOM     22  N   UNL     1      -2.324   5.524   0.000  0.00  0.00    -0.197 NA
ENDBRANCH  20  21
ENDBRANCH  19  20
ENDBRANCH  14  19
ENDBRANCH  13  14
TORSDOF 9