REMARK  Name = 677392
REMARK  18 active torsions:
REMARK  status: ('A' for Active; 'I' for Inactive)
REMARK    1  A    between atoms: C_1  and  C_3
REMARK    2  A    between atoms: C_3  and  C_40
REMARK    3  A    between atoms: C_4  and  C_6
REMARK    4  A    between atoms: C_6  and  C_48
REMARK    5  A    between atoms: C_9  and  C_39
REMARK    6  A    between atoms: C_10  and  N_19
REMARK    7  A    between atoms: C_14  and  N_20
REMARK    8  A    between atoms: C_15  and  C_38
REMARK    9  A    between atoms: N_21  and  C_23
REMARK   10  A    between atoms: N_22  and  C_29
REMARK   11  A    between atoms: C_26  and  S_35
REMARK   12  A    between atoms: C_32  and  S_35
REMARK   13  A    between atoms: C_42  and  N_56
REMARK   14  A    between atoms: C_45  and  O_58
REMARK   15  A    between atoms: C_50  and  N_57
REMARK   16  A    between atoms: C_53  and  O_60
REMARK   17  A    between atoms: O_58  and  C_59
REMARK   18  A    between atoms: O_60  and  C_61
REMARK                            x       y       z     vdW  Elec       q    Type
REMARK                         _______ _______ _______ _____ _____    ______ ____
ROOT
ATOM     12  S   UNL     1       1.622  17.312   0.000  0.00  0.00    +0.025 S 
ATOM     13  O   UNL     1       2.834  16.429   0.000  0.00  0.00    -0.164 OA
ATOM     14  O   UNL     1       0.409  18.195   0.000  0.00  0.00    -0.164 OA
ENDROOT
BRANCH  12  11
ATOM      8  C   UNL     1      -1.027  13.674   0.000  0.00  0.00    +0.086 A 
ATOM      9  C   UNL     1      -1.636  15.045   0.000  0.00  0.00    +0.031 A 
ATOM     10  C   UNL     1      -0.753  16.258   0.000  0.00  0.00    +0.029 A 
ATOM     11  C   UNL     1       0.739  16.099   0.000  0.00  0.00    +0.094 A 
ATOM     45  C   UNL     1       1.347  14.728   0.000  0.00  0.00    +0.029 A 
ATOM     46  C   UNL     1       0.464  13.516   0.000  0.00  0.00    +0.031 A 
BRANCH   8   7
ATOM      6  N   UNL     1      -3.402  12.620   0.000  0.00  0.00    -0.168 NA
ATOM      7  N   UNL     1      -1.910  12.461   0.000  0.00  0.00    -0.154 NA
BRANCH   6   5
ATOM      1  C   UNL     1      -5.039   7.600   0.000  0.00  0.00    +0.251 C 
ATOM      2  N   UNL     1      -5.037   9.100   0.000  0.00  0.00    -0.125 N 
ATOM      3  C   UNL     1      -3.823   9.980   0.000  0.00  0.00    +0.274 C 
ATOM      4  O   UNL     1      -2.397   9.515   0.000  0.00  0.00    -0.271 OA
ATOM      5  C   UNL     1      -4.285  11.407   0.000  0.00  0.00    +0.261 C 
ATOM     47  C   UNL     1      -5.785  11.409   0.000  0.00  0.00    +0.070 C 
ATOM     48  C   UNL     1      -6.665  12.624   0.000  0.00  0.00    +0.065 C 
ATOM     49  N   UNL     1      -6.250   9.983   0.000  0.00  0.00    -0.177 NA
ATOM     63  O   UNL     1      -6.339   6.851   0.000  0.00  0.00    -0.273 OA
BRANCH   1  50
ATOM     50  C   UNL     1      -3.741   6.848   0.000  0.00  0.00    +0.194 C 
BRANCH  50  51
ATOM     51  C   UNL     1      -3.743   5.348   0.000  0.00  0.00    +0.226 C 
ATOM     52  N   UNL     1      -2.444   4.597   0.000  0.00  0.00    -0.285 N 
ATOM     53  H   UNL     1      -2.445   3.613   0.000  0.00  0.00    +0.155 HD
ATOM     62  O   UNL     1      -5.043   4.600   0.000  0.00  0.00    -0.275 OA
BRANCH  52  54
ATOM     54  C   UNL     1      -1.145   5.346   0.000  0.00  0.00    +0.034 A 
ATOM     55  C   UNL     1      -1.143   6.846   0.000  0.00  0.00    +0.027 A 
ATOM     56  C   UNL     1       0.157   7.594   0.000  0.00  0.00    +0.047 A 
ATOM     57  C   UNL     1       1.455   6.843   0.000  0.00  0.00    +0.120 A 
ATOM     60  C   UNL     1       1.454   5.343   0.000  0.00  0.00    +0.047 A 
ATOM     61  C   UNL     1       0.154   4.594   0.000  0.00  0.00    +0.027 A 
BRANCH  57  58
ATOM     58  O   UNL     1       2.755   7.591   0.000  0.00  0.00    -0.495 OA
ATOM     59  C   UNL     1       4.053   6.840   0.000  0.00  0.00    +0.277 C 
ENDBRANCH  57  58
ENDBRANCH  52  54
ENDBRANCH  50  51
ENDBRANCH   1  50
ENDBRANCH   6   5
ENDBRANCH   8   7
ENDBRANCH  12  11
BRANCH  12  15
ATOM     15  C   UNL     1       2.505  18.524   0.000  0.00  0.00    +0.094 A 
ATOM     16  C   UNL     1       3.997  18.366   0.000  0.00  0.00    +0.029 A 
ATOM     17  C   UNL     1       4.880  19.578   0.000  0.00  0.00    +0.031 A 
ATOM     18  C   UNL     1       4.271  20.949   0.000  0.00  0.00    +0.086 A 
ATOM     19  C   UNL     1       2.779  21.108   0.000  0.00  0.00    +0.031 A 
ATOM     44  C   UNL     1       1.896  19.895   0.000  0.00  0.00    +0.029 A 
BRANCH  18  20
ATOM     20  N   UNL     1       5.154  22.162   0.000  0.00  0.00    -0.154 NA
ATOM     21  N   UNL     1       4.545  23.533   0.000  0.00  0.00    -0.168 NA
BRANCH  21  22
ATOM     22  C   UNL     1       3.054  23.691   0.000  0.00  0.00    +0.261 C 
ATOM     23  C   UNL     1       2.049  22.578   0.000  0.00  0.00    +0.070 C 
ATOM     24  C   UNL     1       2.359  21.110   0.000  0.00  0.00    +0.065 C 
ATOM     25  N   UNL     1       0.679  23.189   0.000  0.00  0.00    -0.177 NA
ATOM     26  N   UNL     1       0.838  24.681   0.000  0.00  0.00    -0.125 N 
ATOM     27  C   UNL     1      -0.276  25.686   0.000  0.00  0.00    +0.251 C 
ATOM     41  O   UNL     1      -1.703  25.224   0.000  0.00  0.00    -0.273 OA
ATOM     42  C   UNL     1       2.305  24.991   0.000  0.00  0.00    +0.274 C 
ATOM     43  O   UNL     1       2.917  26.361   0.000  0.00  0.00    -0.271 OA
BRANCH  27  28
ATOM     28  C   UNL     1       0.038  27.153   0.000  0.00  0.00    +0.194 C 
BRANCH  28  29
ATOM     29  C   UNL     1      -1.076  28.158   0.000  0.00  0.00    +0.226 C 
ATOM     30  N   UNL     1      -0.762  29.625   0.000  0.00  0.00    -0.285 N 
ATOM     31  H   UNL     1      -1.493  30.284   0.000  0.00  0.00    +0.155 HD
ATOM     40  O   UNL     1      -2.503  27.696   0.000  0.00  0.00    -0.275 OA
BRANCH  30  32
ATOM     32  C   UNL     1       0.665  30.087   0.000  0.00  0.00    +0.034 A 
ATOM     33  C   UNL     1       0.978  31.553   0.000  0.00  0.00    +0.027 A 
ATOM     34  C   UNL     1       2.405  32.015   0.000  0.00  0.00    +0.047 A 
ATOM     35  C   UNL     1       3.519  31.010   0.000  0.00  0.00    +0.120 A 
ATOM     38  C   UNL     1       3.205  29.544   0.000  0.00  0.00    +0.047 A 
ATOM     39  C   UNL     1       1.778  29.082   0.000  0.00  0.00    +0.027 A 
BRANCH  35  36
ATOM     36  O   UNL     1       4.946  31.472   0.000  0.00  0.00    -0.495 OA
ATOM     37  C   UNL     1       5.259  32.939   0.000  0.00  0.00    +0.277 C 
ENDBRANCH  35  36
ENDBRANCH  30  32
ENDBRANCH  28  29
ENDBRANCH  27  28
ENDBRANCH  21  22
ENDBRANCH  18  20
ENDBRANCH  12  15
TORSDOF 14