REMARK  Name = 641233
REMARK  6 active torsions:
REMARK  status: ('A' for Active; 'I' for Inactive)
REMARK    1  A    between atoms: C_9  and  N_31
REMARK    2  A    between atoms: C_14  and  C_15
REMARK    3  A    between atoms: C_15  and  C_17
REMARK    4  A    between atoms: C_17  and  C_19
REMARK    5  A    between atoms: C_17  and  C_40
REMARK    6  A    between atoms: C_19  and  C_21
REMARK                            x       y       z     vdW  Elec       q    Type
REMARK                         _______ _______ _______ _____ _____    ______ ____
ROOT
ATOM     13  C   UNL     1      11.142   5.772   0.000  0.00  0.00    +0.181 C 
ENDROOT
BRANCH  13  14
ATOM     14  C   UNL     1      11.142   4.272   0.000  0.00  0.00    +0.226 C 
ATOM     15  O   UNL     1      12.356   3.390   0.000  0.00  0.00    -0.452 OA
ATOM     16  C   UNL     1      11.892   1.964   0.000  0.00  0.00    +0.340 C 
ATOM     17  O   UNL     1      12.774   0.750   0.000  0.00  0.00    -0.245 OA
ATOM     18  C   UNL     1      10.392   1.964   0.000  0.00  0.00    +0.066 A 
ATOM     19  C   UNL     1       9.389   0.849   0.000  0.00  0.00    +0.015 A 
ATOM     20  C   UNL     1       7.921   1.161   0.000  0.00  0.00    +0.001 A 
ATOM     21  C   UNL     1       7.458   2.587   0.000  0.00  0.00    +0.000 A 
ATOM     22  C   UNL     1       8.462   3.702   0.000  0.00  0.00    +0.008 A 
ATOM     23  C   UNL     1       9.929   3.390   0.000  0.00  0.00    +0.008 A 
ENDBRANCH  13  14
BRANCH  13  11
ATOM     11  C   UNL     1       9.843   6.522   0.000  0.00  0.00    +0.232 C 
ATOM     12  O   UNL     1       8.544   5.772   0.000  0.00  0.00    -0.286 OA
BRANCH  11   9
ATOM      7  N   UNL     1       8.544   8.772   0.000  0.00  0.00    -0.275 N 
ATOM      8  H   UNL     1       7.692   8.280   0.000  0.00  0.00    +0.155 HD
ATOM      9  C   UNL     1       9.843   8.022   0.000  0.00  0.00    +0.285 C 
ATOM     10  O   UNL     1      11.142   8.772   0.000  0.00  0.00    -0.267 OA
BRANCH   7   6
ATOM      1  C   UNL     1       5.946  14.772   0.000  0.00  0.00    +0.001 A 
ATOM      2  C   UNL     1       5.946  13.272   0.000  0.00  0.00    +0.012 A 
ATOM      3  C   UNL     1       7.245  12.522   0.000  0.00  0.00    +0.034 A 
ATOM      4  C   UNL     1       7.245  11.022   0.000  0.00  0.00    +0.209 C 
ATOM      5  O   UNL     1       5.946  10.272   0.000  0.00  0.00    -0.285 OA
ATOM      6  C   UNL     1       8.544  10.272   0.000  0.00  0.00    +0.104 C 
ATOM     36  C   UNL     1       9.843  11.022   0.000  0.00  0.00    +0.113 C 
ATOM     37 CL   UNL     1      11.142  10.272   0.000  0.00  0.00    -0.077 Cl
ATOM     38  C   UNL     1       9.843  12.522   0.000  0.00  0.00    +0.207 C 
ATOM     39  O   UNL     1      11.142  13.272   0.000  0.00  0.00    -0.286 OA
ATOM     40  C   UNL     1       8.544  13.272   0.000  0.00  0.00    +0.034 A 
ATOM     41  C   UNL     1       8.544  14.772   0.000  0.00  0.00    +0.012 A 
ATOM     42  C   UNL     1       7.245  15.522   0.000  0.00  0.00    +0.001 A 
ENDBRANCH   7   6
ENDBRANCH  11   9
ENDBRANCH  13  11
BRANCH  13  24
ATOM     24  C   UNL     1      12.441   6.522   0.000  0.00  0.00    +0.178 C 
ATOM     35  O   UNL     1      12.441   8.022   0.000  0.00  0.00    -0.291 OA
BRANCH  24  25
ATOM     25  C   UNL     1      13.740   5.772   0.000  0.00  0.00    +0.019 A 
ATOM     26  C   UNL     1      15.039   6.522   0.000  0.00  0.00    +0.020 A 
ATOM     27  C   UNL     1      16.339   5.772   0.000  0.00  0.00    -0.017 A 
ATOM     28  C   UNL     1      17.637   6.522   0.000  0.00  0.00    +0.008 A 
ATOM     29  C   UNL     1      18.936   5.772   0.000  0.00  0.00    +0.001 A 
ATOM     30  C   UNL     1      18.936   4.272   0.000  0.00  0.00    +0.001 A 
ATOM     31  C   UNL     1      17.637   3.522   0.000  0.00  0.00    +0.008 A 
ATOM     32  C   UNL     1      16.339   4.272   0.000  0.00  0.00    -0.018 A 
ATOM     33  C   UNL     1      15.039   3.522   0.000  0.00  0.00    +0.009 A 
ATOM     34  C   UNL     1      13.740   4.272   0.000  0.00  0.00    +0.012 A 
ENDBRANCH  24  25
ENDBRANCH  13  24
TORSDOF 6