REMARK  Name = 638646
REMARK  5 active torsions:
REMARK  status: ('A' for Active; 'I' for Inactive)
REMARK    1  A    between atoms: C_5  and  C_9
REMARK    2  A    between atoms: C_14  and  C_18
REMARK    3  A    between atoms: C_26  and  C_28
REMARK    4  A    between atoms: C_28  and  C_29
REMARK    5  A    between atoms: C_29  and  N_30
REMARK                            x       y       z     vdW  Elec       q    Type
REMARK                         _______ _______ _______ _____ _____    ______ ____
ROOT
ATOM      1 CL   UNL     1       0.774  16.035   0.000  0.00  0.00    -0.145 Cl
ATOM      2  H   UNL     1       2.104  16.035   0.000  0.00  0.00    +0.145 HD
ENDROOT
TORSDOF 0