REMARK  Name = 71851
REMARK  4 active torsions:
REMARK  status: ('A' for Active; 'I' for Inactive)
REMARK    1  A    between atoms: N_6  and  C1*_11
REMARK    2  A    between atoms: C4*_8  and  C5*_19
REMARK    3  A    between atoms: C3*_9  and  O3*_20
REMARK    4  A    between atoms: O5*_18  and  C5*_19
REMARK                            x       y       z     vdW  Elec       q    Type
REMARK                         _______ _______ _______ _____ _____    ______ ____
ROOT
ATOM      1  N   UNL     1      -0.921  -4.131   0.000  0.00  0.00    -0.207 NA
ATOM      2  C   UNL     1       0.567  -3.944   0.000  0.00  0.00    +0.140 A 
ATOM      3  C   UNL     1       1.150  -2.562   0.000  0.00  0.00    +0.139 A 
ATOM      4  C   UNL     1       0.244  -1.367   0.000  0.00  0.00    +0.145 A 
ATOM      5  N   UNL     1       1.101  -0.135   0.000  0.00  0.00    -0.289 N 
ATOM      6  C   UNL     1       2.536  -0.570   0.000  0.00  0.00    +0.203 A 
ATOM     17  N   UNL     1      -1.245  -1.553   0.000  0.00  0.00    -0.312 N 
ATOM     18  H   UNL     1      -2.151  -0.358   0.000  0.00  0.00    +0.170 HD
ATOM     19  N   UNL     1       2.567  -2.070   0.000  0.00  0.00    -0.231 NA
ATOM     20  S   UNL     1       1.473  -5.140   0.000  0.00  0.00    -0.028 S 
ATOM     21  C   UNL     1      -1.827  -2.936   0.000  0.00  0.00    +0.193 A 
ATOM     22  N   UNL     1      -3.315  -3.123   0.000  0.00  0.00    -0.329 N 
ATOM     23  H   UNL     1      -3.697  -4.030   0.000  0.00  0.00    +0.145 HD
ATOM     24  H   UNL     1      -3.910  -2.338   0.000  0.00  0.00    +0.145 HD
ENDROOT
BRANCH   5   7
ATOM      7  C1* UNL     1       0.608   1.282   0.000  0.00  0.00    +0.225 C 
ATOM      8  C2* UNL     1      -0.827   1.716   0.000  0.00  0.00    +0.088 C 
ATOM      9  C3* UNL     1      -0.858   3.216   0.000  0.00  0.00    +0.150 C 
ATOM     12  C4* UNL     1       0.559   3.708   0.000  0.00  0.00    +0.175 C 
ATOM     16  O4* UNL     1       1.465   2.513   0.000  0.00  0.00    -0.348 OA
BRANCH   9  10
ATOM     10  O3* UNL     1      -2.089   4.073   0.000  0.00  0.00    -0.389 OA
ATOM     11  H3* UNL     1      -2.007   5.039   0.000  0.00  0.00    +0.210 HD
ENDBRANCH   9  10
BRANCH  12  13
ATOM     13  C5* UNL     1       0.994   5.144   0.000  0.00  0.00    +0.190 C 
BRANCH  13  14
ATOM     14  O5* UNL     1      -0.032   6.238   0.000  0.00  0.00    -0.392 OA
ATOM     15  H5* UNL     1       0.249   7.166   0.000  0.00  0.00    +0.210 HD
ENDBRANCH  13  14
ENDBRANCH  12  13
ENDBRANCH   5   7
TORSDOF 4