REMARK  Name = 7522
REMARK  11 active torsions:
REMARK  status: ('A' for Active; 'I' for Inactive)
REMARK    1  A    between atoms: O_2  and  C_26
REMARK    2  A    between atoms: O_2  and  C_29
REMARK    3  A    between atoms: C_10  and  C_12
REMARK    4  A    between atoms: C_13  and  C_42
REMARK    5  A    between atoms: C_18  and  O_41
REMARK    6  A    between atoms: C_21  and  C_39
REMARK    7  A    between atoms: C_25  and  O_38
REMARK    8  A    between atoms: C_31  and  O_35
REMARK    9  A    between atoms: C_32  and  C_37
REMARK   10  A    between atoms: C_33  and  O_34
REMARK   11  A    between atoms: O_35  and  C_36
REMARK                            x       y       z     vdW  Elec       q    Type
REMARK                         _______ _______ _______ _____ _____    ______ ____
ROOT
ATOM     13  C   UNL     1      -5.017 -11.689   0.000  0.00  0.00    +0.124 C 
ATOM     14  C   UNL     1      -3.718 -12.439   0.000  0.00  0.00    +0.067 C 
ATOM     15  C   UNL     1      -2.419 -11.689   0.000  0.00  0.00    +0.081 C 
ATOM     18  C   UNL     1      -1.120 -12.439   0.000  0.00  0.00    +0.036 C 
ATOM     19  C   UNL     1       0.179 -11.689   0.000  0.00  0.00    +0.009 C 
ATOM     20  C   UNL     1       0.179 -10.189   0.000  0.00  0.00    +0.025 C 
ATOM     21  C   UNL     1      -1.120  -9.439   0.000  0.00  0.00    +0.011 C 
ATOM     22  C   UNL     1      -1.120  -7.939   0.000  0.00  0.00    +0.005 C 
ATOM     23  C   UNL     1       0.179  -7.189   0.000  0.00  0.00    +0.010 C 
ATOM     24  C   UNL     1       1.478  -7.939   0.000  0.00  0.00    +0.004 C 
ATOM     25  C   UNL     1       1.374  -6.443   0.000  0.00  0.00    +0.014 C 
ATOM     26  C   UNL     1       2.905  -7.476   0.000  0.00  0.00    +0.027 C 
ATOM     27  C   UNL     1       3.787  -8.689   0.000  0.00  0.00    +0.011 C 
ATOM     28  C   UNL     1       2.905  -9.903   0.000  0.00  0.00    +0.036 C 
ATOM     35  C   UNL     1       1.478  -9.439   0.000  0.00  0.00    +0.075 C 
ATOM     38  C   UNL     1      -2.419 -10.189   0.000  0.00  0.00    +0.058 C 
ATOM     41  C   UNL     1      -3.718  -9.439   0.000  0.00  0.00    +0.020 C 
ATOM     42  C   UNL     1      -5.017 -10.189   0.000  0.00  0.00    +0.033 C 
ENDROOT
BRANCH  26  29
ATOM     29  C   UNL     1       1.898  -5.215   0.000  0.00  0.00    -0.022 C 
ATOM     30  C   UNL     1       0.431  -4.903   0.000  0.00  0.00    +0.264 C 
ATOM     31  O   UNL     1       0.274  -3.411   0.000  0.00  0.00    -0.457 OA
ATOM     32  C   UNL     1       1.645  -2.801   0.000  0.00  0.00    +0.332 C 
ATOM     33  O   UNL     1       1.956  -1.334   0.000  0.00  0.00    -0.246 OA
ATOM     34  C   UNL     1       2.648  -3.916   0.000  0.00  0.00    +0.094 C 
ENDBRANCH  26  29
BRANCH  15  16
ATOM     16  O   UNL     1      -2.419 -13.189   0.000  0.00  0.00    -0.388 OA
ATOM     17  H   UNL     1      -3.259 -13.674   0.000  0.00  0.00    +0.210 HD
ENDBRANCH  15  16
BRANCH  35  36
ATOM     36  O   UNL     1       1.635 -10.931   0.000  0.00  0.00    -0.388 OA
ATOM     37  H   UNL     1       0.850 -11.501   0.000  0.00  0.00    +0.210 HD
ENDBRANCH  35  36
BRANCH  38  39
ATOM     39  C   UNL     1      -2.419  -8.689   0.000  0.00  0.00    +0.233 C 
ATOM     40  O   UNL     1      -3.718  -7.939   0.000  0.00  0.00    -0.300 OA
ENDBRANCH  38  39
BRANCH  13  12
ATOM     12  O   UNL     1      -6.316 -12.439   0.000  0.00  0.00    -0.348 OA
BRANCH  12  11
ATOM      1  O   UNL     1      -7.615 -14.689   0.000  0.00  0.00    -0.346 OA
ATOM      2  C   UNL     1      -7.615 -16.189   0.000  0.00  0.00    +0.149 C 
ATOM      3  C   UNL     1      -8.914 -16.939   0.000  0.00  0.00    +0.041 C 
ATOM      4  C   UNL     1      -6.316 -16.939   0.000  0.00  0.00    +0.172 C 
ATOM      7  C   UNL     1      -5.017 -16.189   0.000  0.00  0.00    +0.154 C 
ATOM     10  C   UNL     1      -5.017 -14.689   0.000  0.00  0.00    +0.095 C 
ATOM     11  C   UNL     1      -6.316 -13.939   0.000  0.00  0.00    +0.253 C 
BRANCH   4   5
ATOM      5  O   UNL     1      -6.316 -18.439   0.000  0.00  0.00    -0.387 OA
ATOM      6  H   UNL     1      -7.156 -18.924   0.000  0.00  0.00    +0.210 HD
ENDBRANCH   4   5
BRANCH   7   8
ATOM      8  O   UNL     1      -3.718 -16.939   0.000  0.00  0.00    -0.377 OA
ATOM      9  C   UNL     1      -3.718 -18.439   0.000  0.00  0.00    +0.194 C 
ENDBRANCH   7   8
ENDBRANCH  12  11
ENDBRANCH  13  12
TORSDOF 8