REMARK  Name = 603169
REMARK  14 active torsions:
REMARK  status: ('A' for Active; 'I' for Inactive)
REMARK    1  A    between atoms: N_7  and  C_10
REMARK    2  A    between atoms: C_8  and  C_11
REMARK    3  A    between atoms: C_14  and  C_17
REMARK    4  A    between atoms: C_18  and  C_19
REMARK    5  A    between atoms: N_20  and  N_21
REMARK    6  A    between atoms: C_22  and  C_23
REMARK    7  A    between atoms: C_26  and  C_29
REMARK    8  A    between atoms: N_30  and  N_31
REMARK    9  A    between atoms: C_32  and  C_33
REMARK   10  A    between atoms: C_34  and  C_35
REMARK   11  A    between atoms: C_38  and  C_45
REMARK   12  A    between atoms: N_41  and  C_63
REMARK   13  A    between atoms: C_52  and  S_58
REMARK   14  A    between atoms: C_55  and  C_62
REMARK                            x       y       z     vdW  Elec       q    Type
REMARK                         _______ _______ _______ _____ _____    ______ ____
ROOT
ATOM      1  C   UNL     1      11.970  15.750   0.000  0.00  0.00    +0.077 A 
ATOM      6  C   UNL     1      11.220  14.451   0.000  0.00  0.00    +0.026 A 
ATOM      7  C   UNL     1       9.720  14.451   0.000  0.00  0.00    +0.005 A 
ATOM      8  C   UNL     1       8.970  15.750   0.000  0.00  0.00    -0.050 A 
ATOM      9  C   UNL     1       7.470  15.750   0.000  0.00  0.00    +0.044 C 
ATOM     10  C   UNL     1       9.720  17.049   0.000  0.00  0.00    +0.005 A 
ATOM     11  C   UNL     1      11.220  17.049   0.000  0.00  0.00    +0.026 A 
ENDROOT
BRANCH   1   2
ATOM      2  S   UNL     1      13.470  15.750   0.000  0.00  0.00    -0.051 S 
ATOM      3  O   UNL     1      13.470  14.250   0.000  0.00  0.00    -0.180 OA
ATOM      4  O   UNL     1      13.470  17.250   0.000  0.00  0.00    -0.180 OA
ATOM      5  O   UNL     1      14.970  15.750   0.000  0.00  0.00    -0.720 OA
ENDBRANCH   1   2
TORSDOF 1