REMARK  Name = 618332
REMARK  0 active torsions:
REMARK  status: ('A' for Active; 'I' for Inactive)
REMARK                            x       y       z     vdW  Elec       q    Type
REMARK                         _______ _______ _______ _____ _____    ______ ____
ROOT
ATOM      1  C   UNL     1       1.824   4.500   0.000  0.00  0.00    +0.001 A 
ATOM      2  C   UNL     1       3.123   5.250   0.000  0.00  0.00    +0.012 A 
ATOM      3  C   UNL     1       4.422   4.500   0.000  0.00  0.00    +0.034 A 
ATOM      4  C   UNL     1       5.721   5.250   0.000  0.00  0.00    +0.202 C 
ATOM      5  C   UNL     1       7.021   4.500   0.000  0.00  0.00    +0.083 C 
ATOM      6 BR   UNL     1       8.319   5.250   0.000  0.00  0.00    -0.045 Br
ATOM      7  C   UNL     1       7.021   3.000   0.000  0.00  0.00    +0.083 C 
ATOM      8 BR   UNL     1       8.319   2.250   0.000  0.00  0.00    -0.045 Br
ATOM      9  C   UNL     1       5.721   2.250   0.000  0.00  0.00    +0.202 C 
ATOM     10  O   UNL     1       5.721   0.750   0.000  0.00  0.00    -0.286 OA
ATOM     11  O   UNL     1       5.721   6.750   0.000  0.00  0.00    -0.286 OA
ATOM     12  C   UNL     1       4.422   3.000   0.000  0.00  0.00    +0.034 A 
ATOM     13  C   UNL     1       3.123   2.250   0.000  0.00  0.00    +0.012 A 
ATOM     14  C   UNL     1       1.824   3.000   0.000  0.00  0.00    +0.001 A 
ENDROOT
TORSDOF 0