REMARK  Name = 634232
REMARK  8 active torsions:
REMARK  status: ('A' for Active; 'I' for Inactive)
REMARK    1  A    between atoms: C_1  and  C_3
REMARK    2  A    between atoms: C_1  and  C_12
REMARK    3  A    between atoms: C_3  and  C_4
REMARK    4  A    between atoms: C_4  and  C_7
REMARK    5  A    between atoms: C_12  and  C_13
REMARK    6  A    between atoms: C_13  and  C_14
REMARK    7  A    between atoms: C_13  and  C_21
REMARK    8  A    between atoms: C_13  and  O_26
REMARK                            x       y       z     vdW  Elec       q    Type
REMARK                         _______ _______ _______ _____ _____    ______ ____
ROOT
ATOM      3  C   UNL     1      10.848  -0.897   0.000  0.00  0.00    +0.122 C 
ENDROOT
BRANCH   3   4
ATOM      4  C   UNL     1      10.848  -2.397   0.000  0.00  0.00    -0.011 A 
ATOM      5  C   UNL     1      12.147  -3.147   0.000  0.00  0.00    +0.007 A 
ATOM      6  C   UNL     1      12.147  -4.647   0.000  0.00  0.00    +0.000 A 
ATOM      7  C   UNL     1      10.848  -5.397   0.000  0.00  0.00    +0.000 A 
ATOM      8  C   UNL     1       9.549  -4.647   0.000  0.00  0.00    +0.000 A 
ATOM      9  C   UNL     1       9.549  -3.147   0.000  0.00  0.00    +0.007 A 
ENDBRANCH   3   4
BRANCH   3  12
ATOM     12  C   UNL     1      12.348  -0.897   0.000  0.00  0.00    -0.011 A 
ATOM     13  C   UNL     1      13.098   0.402   0.000  0.00  0.00    +0.007 A 
ATOM     14  C   UNL     1      14.598   0.402   0.000  0.00  0.00    +0.000 A 
ATOM     15  C   UNL     1      15.348  -0.897   0.000  0.00  0.00    +0.000 A 
ATOM     16  C   UNL     1      14.598  -2.196   0.000  0.00  0.00    +0.000 A 
ATOM     17  C   UNL     1      13.098  -2.196   0.000  0.00  0.00    +0.007 A 
ENDBRANCH   3  12
BRANCH   3  10
ATOM     10  O   UNL     1      10.848   0.603   0.000  0.00  0.00    -0.379 OA
ATOM     11  H   UNL     1      11.688   1.088   0.000  0.00  0.00    +0.211 HD
ENDBRANCH   3  10
BRANCH   3   2
ATOM      2  C   UNL     1       9.348  -0.897   0.000  0.00  0.00    +0.119 C 
BRANCH   2   1
ATOM      1  C   UNL     1       8.598   0.402   0.000  0.00  0.00    +0.144 C 
ATOM     27  O   UNL     1       9.348   1.701   0.000  0.00  0.00    -0.297 OA
BRANCH   1  18
ATOM     18  C   UNL     1       7.098   0.402   0.000  0.00  0.00    +0.154 C 
BRANCH  18  19
ATOM     19  C   UNL     1       6.348   1.701   0.000  0.00  0.00    +0.170 C 
ATOM     26  O   UNL     1       7.098   3.000   0.000  0.00  0.00    -0.292 OA
BRANCH  19  20
ATOM     20  C   UNL     1       4.848   1.701   0.000  0.00  0.00    +0.018 A 
ATOM     21  C   UNL     1       4.098   3.000   0.000  0.00  0.00    +0.011 A 
ATOM     22  C   UNL     1       2.598   3.000   0.000  0.00  0.00    +0.001 A 
ATOM     23  C   UNL     1       1.848   1.701   0.000  0.00  0.00    +0.000 A 
ATOM     24  C   UNL     1       2.598   0.402   0.000  0.00  0.00    +0.001 A 
ATOM     25  C   UNL     1       4.098   0.402   0.000  0.00  0.00    +0.011 A 
ENDBRANCH  19  20
ENDBRANCH  18  19
ENDBRANCH   1  18
ENDBRANCH   2   1
ENDBRANCH   3   2
TORSDOF 8