REMARK  Name = 96932
REMARK  7 active torsions:
REMARK  status: ('A' for Active; 'I' for Inactive)
REMARK    1  A    between atoms: N_3  and  C_20
REMARK    2  A    between atoms: N_4  and  C_26
REMARK    3  A    between atoms: C_18  and  C_25
REMARK    4  A    between atoms: C_20  and  C_21
REMARK    5  A    between atoms: C_22  and  C_23
REMARK    6  A    between atoms: C_23  and  C_24
REMARK    7  A    between atoms: C_26  and  C_27
REMARK                            x       y       z     vdW  Elec       q    Type
REMARK                         _______ _______ _______ _____ _____    ______ ____
ROOT
ATOM      4  C   UNL     1       8.819  -0.668   0.000  0.00  0.00    -0.041 C 
ATOM      5  C   UNL     1       9.570  -1.967   0.000  0.00  0.00    +0.089 C 
ATOM     17  C   UNL     1       9.569   0.631   0.000  0.00  0.00    +0.044 C 
ENDROOT
BRANCH   4   3
ATOM      1  S   UNL     1       7.180   2.001   0.000  0.00  0.00    -0.070 S 
ATOM      2  C   UNL     1       6.569   0.631   0.000  0.00  0.00    +0.081 A 
ATOM      3  C   UNL     1       7.319  -0.668   0.000  0.00  0.00    +0.036 C 
ATOM     18  N   UNL     1       5.078   0.788   0.000  0.00  0.00    -0.335 N 
ATOM     21  C   UNL     1       4.766   2.255   0.000  0.00  0.00    +0.057 A 
ATOM     22  C   UNL     1       3.467   3.005   0.000  0.00  0.00    +0.027 A 
ATOM     23  C   UNL     1       3.467   4.505   0.000  0.00  0.00    +0.002 A 
ATOM     24  C   UNL     1       4.766   5.255   0.000  0.00  0.00    +0.001 A 
ATOM     25  C   UNL     1       6.065   4.505   0.000  0.00  0.00    +0.017 A 
ATOM     26  C   UNL     1       6.065   3.005   0.000  0.00  0.00    +0.038 A 
BRANCH  18  19
ATOM     19  C   UNL     1       4.074  -0.327   0.000  0.00  0.00    +0.119 C 
ATOM     20  C   UNL     1       4.538  -1.754   0.000  0.00  0.00    +0.027 C 
ENDBRANCH  18  19
ENDBRANCH   4   3
BRANCH   5   6
ATOM      6  C   UNL     1      11.070  -1.967   0.000  0.00  0.00    +0.248 A 
ATOM      7  S   UNL     1      11.951  -0.754   0.000  0.00  0.00    -0.014 S 
ATOM      8  C   UNL     1      13.378  -1.217   0.000  0.00  0.00    +0.089 A 
ATOM      9  C   UNL     1      13.378  -2.717   0.000  0.00  0.00    +0.223 A 
ATOM     10  C   UNL     1      14.677  -3.467   0.000  0.00  0.00    +0.079 A 
ATOM     11  C   UNL     1      15.976  -2.717   0.000  0.00  0.00    +0.006 A 
ATOM     12  C   UNL     1      15.976  -1.217   0.000  0.00  0.00    +0.002 A 
ATOM     13  C   UNL     1      14.677  -0.467   0.000  0.00  0.00    +0.022 A 
ATOM     14  N   UNL     1      11.951  -3.181   0.000  0.00  0.00    -0.185 N 
BRANCH  14  15
ATOM     15  C   UNL     1      11.488  -4.607   0.000  0.00  0.00    +0.355 C 
ATOM     16  C   UNL     1      10.021  -4.919   0.000  0.00  0.00    +0.082 C 
ENDBRANCH  14  15
ENDBRANCH   5   6
TORSDOF 4