REMARK  Name = 625641
REMARK  5 active torsions:
REMARK  status: ('A' for Active; 'I' for Inactive)
REMARK    1  A    between atoms: C_1  and  C_8
REMARK    2  A    between atoms: C_2  and  N_9
REMARK    3  A    between atoms: N_9  and  C_10
REMARK    4  A    between atoms: C_11  and  C_12
REMARK    5  A    between atoms: C_14  and  N_15
REMARK                            x       y       z     vdW  Elec       q    Type
REMARK                         _______ _______ _______ _____ _____    ______ ____
ROOT
ATOM      9  N   UNL     1      -7.245  -2.250   0.000  0.00  0.00    -0.314 N 
ATOM     10  H   UNL     1      -7.245  -1.266   0.000  0.00  0.00    +0.152 HD
ENDROOT
BRANCH   9   8
ATOM      1  C   UNL     1      -9.843  -2.250   0.000  0.00  0.00    -0.011 A 
ATOM      2  C   UNL     1      -9.843  -0.750   0.000  0.00  0.00    +0.047 C 
ATOM      3  C   UNL     1     -11.142  -3.000   0.000  0.00  0.00    +0.046 A 
ATOM      4 CL   UNL     1     -12.441  -2.250   0.000  0.00  0.00    -0.083 Cl
ATOM      5  C   UNL     1     -11.142  -4.500   0.000  0.00  0.00    +0.020 A 
ATOM      6  C   UNL     1      -9.843  -5.250   0.000  0.00  0.00    +0.003 A 
ATOM      7  C   UNL     1      -8.544  -4.500   0.000  0.00  0.00    +0.023 A 
ATOM      8  C   UNL     1      -8.544  -3.000   0.000  0.00  0.00    +0.036 A 
ENDBRANCH   9   8
BRANCH   9  11
ATOM     11  C   UNL     1      -5.946  -3.000   0.000  0.00  0.00    +0.035 A 
ATOM     12  C   UNL     1      -5.946  -4.500   0.000  0.00  0.00    +0.030 A 
ATOM     13  C   UNL     1      -4.647  -5.250   0.000  0.00  0.00    +0.086 A 
ATOM     14  C   UNL     1      -3.348  -4.500   0.000  0.00  0.00    +0.274 A 
ATOM     18  C   UNL     1      -3.348  -3.000   0.000  0.00  0.00    +0.089 A 
ATOM     19  C   UNL     1      -4.647  -2.250   0.000  0.00  0.00    -0.023 A 
ATOM     20  C   UNL     1      -4.647  -0.750   0.000  0.00  0.00    +0.046 C 
BRANCH  14  15
ATOM     15  N   UNL     1      -2.049  -5.250   0.000  0.00  0.00    +0.080 N 
ATOM     16  O   UNL     1      -0.750  -4.500   0.000  0.00  0.00    +0.041 OA
ATOM     17  O   UNL     1      -2.049  -6.750   0.000  0.00  0.00    -0.576 OA
ENDBRANCH  14  15
ENDBRANCH   9  11
TORSDOF 3