REMARK  Name = 80396
REMARK  4 active torsions:
REMARK  status: ('A' for Active; 'I' for Inactive)
REMARK    1  A    between atoms: C_7  and  C_10
REMARK    2  A    between atoms: C_10  and  C_12
REMARK    3  A    between atoms: C_12  and  C_13
REMARK    4  A    between atoms: C_13  and  C_15
REMARK                            x       y       z     vdW  Elec       q    Type
REMARK                         _______ _______ _______ _____ _____    ______ ____
ROOT
ATOM      1  S   UNL     1      -2.375   0.507   0.000  0.00  0.00    -0.096 S 
ATOM      2  C   UNL     1      -1.127  -0.325   0.000  0.00  0.00    +0.057 A 
ATOM      3  C   UNL     1       0.050   0.606   0.000  0.00  0.00    +0.033 A 
ATOM     13  C   UNL     1      -0.472   2.012   0.000  0.00  0.00    -0.000 A 
ATOM     14  C   UNL     1       0.224   3.341   0.000  0.00  0.00    +0.010 A 
ATOM     15  C   UNL     1      -0.578   4.608   0.000  0.00  0.00    +0.001 A 
ATOM     16  C   UNL     1      -2.077   4.547   0.000  0.00  0.00    +0.001 A 
ATOM     17  C   UNL     1      -2.773   3.218   0.000  0.00  0.00    +0.015 A 
ATOM     18  C   UNL     1      -1.971   1.951   0.000  0.00  0.00    +0.020 A 
ENDROOT
BRANCH   3   4
ATOM      4  C   UNL     1       1.494   0.201   0.000  0.00  0.00    +0.172 C 
ATOM     12  O   UNL     1       2.567   1.250   0.000  0.00  0.00    -0.292 OA
BRANCH   4   5
ATOM      5  C   UNL     1       1.866  -1.252   0.000  0.00  0.00    +0.163 C 
BRANCH   5   6
ATOM      6  C   UNL     1       0.793  -2.301   0.000  0.00  0.00    +0.243 C 
ATOM     11  O   UNL     1      -0.651  -1.896   0.000  0.00  0.00    -0.288 OA
BRANCH   6   7
ATOM      7  C   UNL     1       1.165  -3.754   0.000  0.00  0.00    +0.451 C 
ATOM      8  F   UNL     1       2.618  -3.382   0.000  0.00  0.00    -0.163 F 
ATOM      9  F   UNL     1       1.536  -5.207   0.000  0.00  0.00    -0.163 F 
ATOM     10  F   UNL     1      -0.288  -4.125   0.000  0.00  0.00    -0.163 F 
ENDBRANCH   6   7
ENDBRANCH   5   6
ENDBRANCH   4   5
ENDBRANCH   3   4
TORSDOF 4