REMARK  Name = 620050
REMARK  5 active torsions:
REMARK  status: ('A' for Active; 'I' for Inactive)
REMARK    1  A    between atoms: C_5  and  S_7
REMARK    2  A    between atoms: S_7  and  C_9
REMARK    3  A    between atoms: C_9  and  C_10
REMARK    4  A    between atoms: C_10  and  O_12
REMARK    5  A    between atoms: O_12  and  C_13
REMARK                            x       y       z     vdW  Elec       q    Type
REMARK                         _______ _______ _______ _____ _____    ______ ____
ROOT
ATOM      4  S   UNL     1      -5.946  -2.250   0.000  0.00  0.00    +0.065 S 
ATOM     10  O   UNL     1      -5.946  -0.750   0.000  0.00  0.00    -0.252 OA
ENDROOT
BRANCH   4   3
ATOM      1  C   UNL     1      -9.843  -3.000   0.000  0.00  0.00    +0.001 A 
ATOM      2  C   UNL     1      -8.544  -2.250   0.000  0.00  0.00    +0.017 A 
ATOM      3  C   UNL     1      -7.245  -3.000   0.000  0.00  0.00    +0.039 A 
ATOM     11  C   UNL     1      -7.245  -4.500   0.000  0.00  0.00    +0.017 A 
ATOM     12  C   UNL     1      -8.544  -5.250   0.000  0.00  0.00    +0.001 A 
ATOM     13  C   UNL     1      -9.843  -4.500   0.000  0.00  0.00    +0.000 A 
ENDBRANCH   4   3
BRANCH   4   5
ATOM      5  C   UNL     1      -4.647  -3.000   0.000  0.00  0.00    +0.229 C 
BRANCH   5   6
ATOM      6  C   UNL     1      -3.348  -2.250   0.000  0.00  0.00    +0.320 C 
ATOM      9  O   UNL     1      -3.348  -0.750   0.000  0.00  0.00    -0.250 OA
BRANCH   6   7
ATOM      7  O   UNL     1      -2.049  -3.000   0.000  0.00  0.00    -0.467 OA
ATOM      8  C   UNL     1      -0.750  -2.250   0.000  0.00  0.00    +0.280 C 
ENDBRANCH   6   7
ENDBRANCH   5   6
ENDBRANCH   4   5
TORSDOF 4