REMARK  Name = 680506
REMARK  9 active torsions:
REMARK  status: ('A' for Active; 'I' for Inactive)
REMARK    1  A    between atoms: C_3  and  C_12
REMARK    2  A    between atoms: C_6  and  C_13
REMARK    3  A    between atoms: C_10  and  C_20
REMARK    4  A    between atoms: C_13  and  C_21
REMARK    5  A    between atoms: C_13  and  C_22
REMARK    6  A    between atoms: N_14  and  O_15
REMARK    7  A    between atoms: O_15  and  C_16
REMARK    8  A    between atoms: C_16  and  C_17
REMARK    9  A    between atoms: C_17  and  O_18
REMARK                            x       y       z     vdW  Elec       q    Type
REMARK                         _______ _______ _______ _____ _____    ______ ____
ROOT
ATOM      9  C   UNL     1      -5.947  -9.439   0.000  0.00  0.00    +0.029 C 
ATOM     10  C   UNL     1      -5.203 -10.741   0.000  0.00  0.00    +0.039 C 
ATOM     11  C   UNL     1      -3.703 -10.749   0.000  0.00  0.00    -0.070 C 
ATOM     12  C   UNL     1      -2.960 -12.052   0.000  0.00  0.00    +0.039 C 
ATOM     13  C   UNL     1      -2.947  -9.454   0.000  0.00  0.00    +0.025 C 
ATOM     14  C   UNL     1      -3.690  -8.151   0.000  0.00  0.00    +0.081 C 
ATOM     15  N   UNL     1      -2.934  -6.856   0.000  0.00  0.00    -0.089 NA
ATOM     22  C   UNL     1      -5.190  -8.143   0.000  0.00  0.00    +0.067 C 
ENDROOT
BRANCH   9   8
ATOM      1  C   UNL     1      -9.703 -10.719   0.000  0.00  0.00    +0.004 A 
ATOM      2  C   UNL     1     -10.447  -9.416   0.000  0.00  0.00    -0.045 A 
ATOM      6  C   UNL     1      -9.690  -8.121   0.000  0.00  0.00    +0.004 A 
ATOM      7  C   UNL     1      -8.190  -8.128   0.000  0.00  0.00    +0.004 A 
ATOM      8  C   UNL     1      -7.447  -9.431   0.000  0.00  0.00    -0.044 A 
ATOM     23  C   UNL     1      -8.203 -10.726   0.000  0.00  0.00    +0.004 A 
BRANCH   2   3
ATOM      3  C   UNL     1     -11.947  -9.409   0.000  0.00  0.00    +0.013 C 
ATOM      4  C   UNL     1     -12.690  -8.106   0.000  0.00  0.00    +0.012 C 
ATOM      5  C   UNL     1     -12.703 -10.704   0.000  0.00  0.00    +0.012 C 
ENDBRANCH   2   3
ENDBRANCH   9   8
BRANCH  15  16
ATOM     16  O   UNL     1      -1.434  -6.863   0.000  0.00  0.00    -0.382 OA
BRANCH  16  17
ATOM     17  C   UNL     1      -0.677  -5.568   0.000  0.00  0.00    +0.382 C 
BRANCH  17  18
ATOM     18  C   UNL     1       0.823  -5.575   0.000  0.00  0.00    +0.345 C 
ATOM     19  O   UNL     1       1.566  -6.878   0.000  0.00  0.00    -0.247 OA
BRANCH  18  20
ATOM     20  O   UNL     1       1.579  -4.280   0.000  0.00  0.00    -0.478 OA
ATOM     21  H   UNL     1       2.516  -4.285   0.000  0.00  0.00    +0.295 HD
ENDBRANCH  18  20
ENDBRANCH  17  18
ENDBRANCH  16  17
ENDBRANCH  15  16
TORSDOF 6