REMARK  Name = 60309
REMARK  0 active torsions:
REMARK  status: ('A' for Active; 'I' for Inactive)
REMARK                            x       y       z     vdW  Elec       q    Type
REMARK                         _______ _______ _______ _____ _____    ______ ____
ROOT
ATOM      1  O   UNL     1      -5.252  -3.898   0.000  0.00  0.00    -0.619 OA
ATOM      2  N   UNL     1      -4.502  -5.197   0.000  0.00  0.00    -0.152 N 
ATOM      3  C   UNL     1      -3.002  -5.197   0.000  0.00  0.00    +0.301 A 
ATOM      4  C   UNL     1      -2.252  -6.497   0.000  0.00  0.00    +0.301 A 
ATOM      5  C   UNL     1      -0.803  -6.108   0.000  0.00  0.00    +0.063 A 
ATOM      6  C   UNL     1       0.496  -6.858   0.000  0.00  0.00    +0.015 A 
ATOM      7  C   UNL     1       1.795  -6.108   0.000  0.00  0.00    +0.001 A 
ATOM      8  C   UNL     1       1.795  -4.608   0.000  0.00  0.00    +0.008 A 
ATOM      9  C   UNL     1       0.496  -3.858   0.000  0.00  0.00    -0.016 A 
ATOM     10  C   UNL     1       0.496  -2.358   0.000  0.00  0.00    +0.008 A 
ATOM     11  C   UNL     1      -0.803  -1.608   0.000  0.00  0.00    +0.001 A 
ATOM     12  C   UNL     1      -2.103  -2.358   0.000  0.00  0.00    +0.015 A 
ATOM     13  C   UNL     1      -0.803  -4.608   0.000  0.00  0.00    +0.010 A 
ATOM     14  N   UNL     1      -3.002  -7.796   0.000  0.00  0.00    -0.152 N 
ATOM     15  O   UNL     1      -2.252  -9.095   0.000  0.00  0.00    -0.619 OA
ATOM     16  C   UNL     1      -4.502  -7.796   0.000  0.00  0.00    +0.293 A 
ATOM     17  C   UNL     1      -5.252  -9.095   0.000  0.00  0.00    +0.086 A 
ATOM     18  C   UNL     1      -6.752  -9.095   0.000  0.00  0.00    +0.007 A 
ATOM     19  C   UNL     1      -7.502  -7.796   0.000  0.00  0.00    +0.007 A 
ATOM     20  C   UNL     1      -6.752  -6.497   0.000  0.00  0.00    +0.086 A 
ATOM     21  C   UNL     1      -2.103  -3.858   0.000  0.00  0.00    +0.063 A 
ATOM     22  C   UNL     1      -5.252  -6.497   0.000  0.00  0.00    +0.293 A 
ENDROOT
TORSDOF 0