REMARK  Name = 600300
REMARK  12 active torsions:
REMARK  status: ('A' for Active; 'I' for Inactive)
REMARK    1  A    between atoms: C_1  and  SI_2
REMARK    2  A    between atoms: SI_2  and  C_3
REMARK    3  A    between atoms: SI_2  and  C_4
REMARK    4  A    between atoms: SI_2  and  C_5
REMARK    5  A    between atoms: C_5  and  N_6
REMARK    6  A    between atoms: N_6  and  PT_7
REMARK    7  A    between atoms: PT_7  and  N_10
REMARK    8  A    between atoms: N_10  and  C_11
REMARK    9  A    between atoms: C_11  and  SI_12
REMARK   10  A    between atoms: SI_12  and  C_13
REMARK   11  A    between atoms: SI_12  and  C_14
REMARK   12  A    between atoms: SI_12  and  C_15
REMARK                            x       y       z     vdW  Elec       q    Type
REMARK                         _______ _______ _______ _____ _____    ______ ____
ROOT
ATOM      7 PT   UNL     1       1.630  -0.109   0.000  0.00  0.00    +0.000 Pt
ATOM     16 CL   UNL     1       2.364  -1.417   0.000  0.00  0.00    +0.000 Cl
ATOM     17 CL   UNL     1       2.938   0.625   0.000  0.00  0.00    +0.000 Cl
ENDROOT
BRANCH   7   4
ATOM      4  N   UNL     1       0.896   1.200   0.000  0.00  0.00    +1.000 N 
ATOM      5  H   UNL     1       2.204   1.933   0.000  0.00  0.00    +0.000 HD
ATOM      6  H   UNL     1       0.915   2.699   0.000  0.00  0.00    +0.000 HD
BRANCH   4   3
ATOM      3  C   UNL     1      -0.604   1.218   0.000  0.00  0.00    +0.000 C 
BRANCH   3   2
ATOM      1  C   UNL     1      -2.071   3.835   0.000  0.00  0.00    +0.000 C 
ATOM      2 SI   UNL     1      -1.338   2.527   0.000  0.00  0.00    +0.000 Si
ATOM     18  C   UNL     1      -2.646   1.793   0.000  0.00  0.00    +0.000 C 
ATOM     19  C   UNL     1      -0.029   3.260   0.000  0.00  0.00    +0.000 C 
ENDBRANCH   3   2
ENDBRANCH   4   3
ENDBRANCH   7   4
BRANCH   7   8
ATOM      8  N   UNL     1       0.321  -0.843   0.000  0.00  0.00    +1.000 N 
ATOM      9  H   UNL     1      -1.179  -0.824   0.000  0.00  0.00    +0.000 HD
ATOM     10  H   UNL     1      -0.412   0.466   0.000  0.00  0.00    +0.000 HD
BRANCH   8  11
ATOM     11  C   UNL     1       0.564  -2.323   0.000  0.00  0.00    +0.000 C 
BRANCH  11  12
ATOM     12 SI   UNL     1      -0.598  -3.273   0.000  0.00  0.00    +0.000 Si
ATOM     13  C   UNL     1      -1.759  -4.223   0.000  0.00  0.00    +0.000 C 
ATOM     14  C   UNL     1       0.352  -4.434   0.000  0.00  0.00    +0.000 C 
ATOM     15  C   UNL     1      -1.547  -2.112   0.000  0.00  0.00    +0.000 C 
ENDBRANCH  11  12
ENDBRANCH   8  11
ENDBRANCH   7   8
TORSDOF 6