REMARK  Name = 695218
REMARK  4 active torsions:
REMARK  status: ('A' for Active; 'I' for Inactive)
REMARK    1  A    between atoms: C_5  and  C_6
REMARK    2  A    between atoms: N_7  and  O_9
REMARK    3  A    between atoms: N_7  and  C_10
REMARK    4  A    between atoms: O_9  and  C_11
REMARK                            x       y       z     vdW  Elec       q    Type
REMARK                         _______ _______ _______ _____ _____    ______ ____
ROOT
ATOM      3  C   UNL     1      -5.167  -0.678   0.000  0.00  0.00    +0.267 C 
ATOM      4  O   UNL     1      -4.855   0.789   0.000  0.00  0.00    -0.271 OA
ATOM      5  N   UNL     1      -4.052  -1.682   0.000  0.00  0.00    -0.182 N 
ATOM      6  C   UNL     1      -4.364  -3.149   0.000  0.00  0.00    +0.166 C 
ENDROOT
BRANCH   3   2
ATOM      1  O   UNL     1      -7.807  -0.260   0.000  0.00  0.00    -0.367 OA
ATOM      2  C   UNL     1      -6.593  -1.142   0.000  0.00  0.00    +0.206 C 
ATOM      9  C   UNL     1      -7.057  -2.568   0.000  0.00  0.00    +0.043 C 
ATOM     10  C   UNL     1      -8.557  -2.568   0.000  0.00  0.00    +0.031 C 
ATOM     11  C   UNL     1      -9.020  -1.142   0.000  0.00  0.00    +0.161 C 
ENDBRANCH   3   2
BRANCH   5   7
ATOM      7  O   UNL     1      -2.625  -1.219   0.000  0.00  0.00    -0.281 OA
ATOM      8  C   UNL     1      -1.511  -2.222   0.000  0.00  0.00    +0.227 C 
ENDBRANCH   5   7
TORSDOF 2