REMARK  Name = 689872
REMARK  6 active torsions:
REMARK  status: ('A' for Active; 'I' for Inactive)
REMARK    1  A    between atoms: C_2  and  N_15
REMARK    2  A    between atoms: C_10  and  N_18
REMARK    3  A    between atoms: C_13  and  O_19
REMARK    4  A    between atoms: N_18  and  N_27
REMARK    5  A    between atoms: O_19  and  C_20
REMARK    6  A    between atoms: C_21  and  N_27
REMARK                            x       y       z     vdW  Elec       q    Type
REMARK                         _______ _______ _______ _____ _____    ______ ____
ROOT
ATOM      1  C   UNL     1       0.275   7.024   0.000  0.00  0.00    +0.085 A 
ATOM      2  C   UNL     1       1.574   7.774   0.000  0.00  0.00    +0.018 A 
ATOM      3  C   UNL     1       2.873   7.024   0.000  0.00  0.00    +0.024 A 
ATOM      4  C   UNL     1       4.172   7.774   0.000  0.00  0.00    +0.063 A 
ATOM     15  C   UNL     1       5.471   7.024   0.000  0.00  0.00    +0.027 A 
ATOM     16  C   UNL     1       6.770   7.774   0.000  0.00  0.00    +0.057 A 
ATOM     17  C   UNL     1       8.069   7.024   0.000  0.00  0.00    +0.121 A 
ATOM     20  C   UNL     1       8.069   5.524   0.000  0.00  0.00    +0.048 A 
ATOM     21  C   UNL     1       6.770   4.774   0.000  0.00  0.00    +0.032 A 
ATOM     22  C   UNL     1       5.471   5.524   0.000  0.00  0.00    +0.074 A 
ATOM     23  N   UNL     1       4.172   4.774   0.000  0.00  0.00    -0.246 NA
ATOM     24  C   UNL     1       2.873   5.524   0.000  0.00  0.00    +0.080 A 
ATOM     25  C   UNL     1       1.574   4.774   0.000  0.00  0.00    +0.112 A 
ATOM     26  C   UNL     1       0.275   5.524   0.000  0.00  0.00    +0.275 A 
ENDROOT
BRANCH  26  27
ATOM     27  N   UNL     1      -1.025   4.774   0.000  0.00  0.00    +0.080 N 
ATOM     28  O   UNL     1      -1.025   3.275   0.000  0.00  0.00    +0.041 OA
ATOM     29  O   UNL     1      -2.324   5.524   0.000  0.00  0.00    -0.576 OA
ENDBRANCH  26  27
BRANCH   4   5
ATOM      5  N   UNL     1       4.172   9.274   0.000  0.00  0.00    -0.265 N 
ATOM      6  H   UNL     1       3.319   9.767   0.000  0.00  0.00    +0.170 HD
BRANCH   5   7
ATOM      7  N   UNL     1       5.471  10.025   0.000  0.00  0.00    -0.267 N 
ATOM      8  H   UNL     1       5.471  11.009   0.000  0.00  0.00    +0.170 HD
BRANCH   7   9
ATOM      9  C   UNL     1       6.770   9.274   0.000  0.00  0.00    +0.044 A 
ATOM     10  C   UNL     1       6.770  10.775   0.000  0.00  0.00    +0.024 A 
ATOM     11  C   UNL     1       5.471  11.525   0.000  0.00  0.00    +0.002 A 
ATOM     12  C   UNL     1       4.172  10.775   0.000  0.00  0.00    +0.000 A 
ATOM     13  C   UNL     1       4.172   9.274   0.000  0.00  0.00    +0.002 A 
ATOM     14  C   UNL     1       5.471   8.524   0.000  0.00  0.00    +0.024 A 
ENDBRANCH   7   9
ENDBRANCH   5   7
ENDBRANCH   4   5
BRANCH  17  18
ATOM     18  O   UNL     1       9.368   7.774   0.000  0.00  0.00    -0.495 OA
ATOM     19  C   UNL     1      10.667   7.024   0.000  0.00  0.00    +0.277 C 
ENDBRANCH  17  18
TORSDOF 5