REMARK  Name = 56544
REMARK  1 active torsions:
REMARK  status: ('A' for Active; 'I' for Inactive)
REMARK    1  A    between atoms: C_15  and  C_16
REMARK                            x       y       z     vdW  Elec       q    Type
REMARK                         _______ _______ _______ _____ _____    ______ ____
ROOT
ATOM      1  O   UNL     1      -3.911  -4.984   0.000  0.00  0.00    -0.451 OA
ATOM      2  C   UNL     1      -3.029  -6.198   0.000  0.00  0.00    +0.177 C 
ATOM      3  C   UNL     1      -1.529  -6.198   0.000  0.00  0.00    +0.065 C 
ATOM      9  C   UNL     1      -3.911  -7.411   0.000  0.00  0.00    +0.231 C 
ATOM     10  C   UNL     1      -5.337  -6.948   0.000  0.00  0.00    +0.068 A 
ATOM     11  C   UNL     1      -6.636  -7.698   0.000  0.00  0.00    +0.015 A 
ATOM     12  C   UNL     1      -7.936  -6.948   0.000  0.00  0.00    +0.001 A 
ATOM     13  C   UNL     1      -7.936  -5.448   0.000  0.00  0.00    +0.004 A 
ATOM     14  C   UNL     1      -6.636  -4.698   0.000  0.00  0.00    +0.047 A 
ATOM     15  O   UNL     1      -3.447  -8.838   0.000  0.00  0.00    -0.283 OA
ATOM     16  C   UNL     1      -5.337  -5.448   0.000  0.00  0.00    +0.140 A 
ENDROOT
BRANCH   3   4
ATOM      4  C   UNL     1      -0.779  -7.497   0.000  0.00  0.00    +0.016 A 
ATOM      5  C   UNL     1      -1.389  -8.867   0.000  0.00  0.00    +0.015 A 
ATOM      6  C   UNL     1      -0.275  -9.871   0.000  0.00  0.00    +0.008 A 
ATOM      7  C   UNL     1       1.025  -9.121   0.000  0.00  0.00    +0.046 A 
ATOM      8  S   UNL     1       0.713  -7.653   0.000  0.00  0.00    -0.097 S 
ENDBRANCH   3   4
TORSDOF 1