REMARK  Name = 640624
REMARK  5 active torsions:
REMARK  status: ('A' for Active; 'I' for Inactive)
REMARK    1  A    between atoms: C_1  and  C_3
REMARK    2  A    between atoms: C_1  and  C_4
REMARK    3  A    between atoms: C_5  and  C_18
REMARK    4  A    between atoms: C_9  and  C_11
REMARK    5  A    between atoms: C_14  and  N_15
REMARK                            x       y       z     vdW  Elec       q    Type
REMARK                         _______ _______ _______ _____ _____    ______ ____
ROOT
ATOM      1  C   UNL     1     -11.656  -2.160   0.000  0.00  0.00    +0.079 C 
ATOM      2  N   UNL     1     -10.357  -1.410   0.000  0.00  0.00    -0.249 NA
ATOM      3  C   UNL     1      -9.058  -2.160   0.000  0.00  0.00    +0.192 A 
ATOM      4  S   UNL     1      -7.632  -1.696   0.000  0.00  0.00    -0.028 S 
ATOM      5  C   UNL     1      -6.750  -2.910   0.000  0.00  0.00    +0.132 A 
ATOM     15  N   UNL     1      -7.632  -4.123   0.000  0.00  0.00    -0.157 NA
ATOM     16  N   UNL     1      -9.058  -3.660   0.000  0.00  0.00    -0.212 N 
ATOM     17  C   UNL     1     -10.357  -4.410   0.000  0.00  0.00    +0.041 C 
ATOM     18  C   UNL     1     -10.357  -5.910   0.000  0.00  0.00    +0.065 C 
ATOM     19  C   UNL     1     -13.134  -2.420   0.000  0.00  0.00    +0.040 C 
ATOM     20  C   UNL     1     -12.169  -0.750   0.000  0.00  0.00    +0.040 C 
ATOM     21  C   UNL     1     -11.656  -3.660   0.000  0.00  0.00    +0.025 C 
ENDROOT
BRANCH   5   6
ATOM      6  C   UNL     1      -5.250  -2.910   0.000  0.00  0.00    +0.009 A 
ATOM      7  C   UNL     1      -4.500  -1.611   0.000  0.00  0.00    +0.012 A 
ATOM      8  C   UNL     1      -3.000  -1.611   0.000  0.00  0.00    +0.023 A 
ATOM      9  C   UNL     1      -2.250  -2.910   0.000  0.00  0.00    +0.025 A 
ATOM     13  C   UNL     1      -3.000  -4.209   0.000  0.00  0.00    +0.023 A 
ATOM     14  C   UNL     1      -4.500  -4.209   0.000  0.00  0.00    +0.012 A 
BRANCH   9  10
ATOM     10  N   UNL     1      -0.750  -2.910   0.000  0.00  0.00    -0.358 N 
ATOM     11  H   UNL     1      -0.258  -2.057   0.000  0.00  0.00    +0.142 HD
ATOM     12  H   UNL     1      -0.258  -3.762   0.000  0.00  0.00    +0.142 HD
ENDBRANCH   9  10
ENDBRANCH   5   6
TORSDOF 2