REMARK  Name = 643774
REMARK  13 active torsions:
REMARK  status: ('A' for Active; 'I' for Inactive)
REMARK    1  A    between atoms: C_3  and  C_7
REMARK    2  A    between atoms: C_6  and  N_19
REMARK    3  A    between atoms: C_8  and  N_9
REMARK    4  A    between atoms: C_8  and  C_14
REMARK    5  A    between atoms: N_9  and  C_10
REMARK    6  A    between atoms: N_9  and  C_12
REMARK    7  A    between atoms: C_10  and  C_11
REMARK    8  A    between atoms: C_12  and  C_13
REMARK    9  A    between atoms: C_14  and  O_16
REMARK   10  A    between atoms: O_16  and  C_17
REMARK   11  A    between atoms: C_17  and  C_18
REMARK   12  A    between atoms: N_19  and  C_20
REMARK   13  A    between atoms: N_19  and  C_21
REMARK                            x       y       z     vdW  Elec       q    Type
REMARK                         _______ _______ _______ _____ _____    ______ ____
ROOT
ATOM      9  C   UNL     1       8.899   0.924   0.000  0.00  0.00    +0.038 C 
ATOM     10  C   UNL     1       9.649  -0.375   0.000  0.00  0.00    +0.115 C 
ENDROOT
BRANCH   9   8
ATOM      1  C   UNL     1       5.149   2.223   0.000  0.00  0.00    +0.023 A 
ATOM      2  C   UNL     1       4.399   0.924   0.000  0.00  0.00    +0.029 A 
ATOM      6  C   UNL     1       5.149  -0.375   0.000  0.00  0.00    +0.023 A 
ATOM      7  C   UNL     1       6.649  -0.375   0.000  0.00  0.00    +0.010 A 
ATOM      8  C   UNL     1       7.399   0.924   0.000  0.00  0.00    -0.023 A 
ATOM     21  C   UNL     1       6.649   2.223   0.000  0.00  0.00    +0.010 A 
BRANCH   2   3
ATOM      3  N   UNL     1       2.900   0.924   0.000  0.00  0.00    -0.336 N 
ATOM      4  C   UNL     1       2.150  -0.375   0.000  0.00  0.00    +0.129 C 
ATOM      5  C   UNL     1       2.150   2.223   0.000  0.00  0.00    +0.129 C 
ENDBRANCH   2   3
ENDBRANCH   9   8
BRANCH  10  11
ATOM     11  C   UNL     1      11.150  -0.375   0.000  0.00  0.00    +0.353 C 
ATOM     15  O   UNL     1      11.900   0.924   0.000  0.00  0.00    -0.244 OA
BRANCH  11  12
ATOM     12  O   UNL     1      11.900  -1.674   0.000  0.00  0.00    -0.461 OA
BRANCH  12  13
ATOM     13  C   UNL     1      13.400  -1.674   0.000  0.00  0.00    +0.229 C 
ATOM     14  C   UNL     1      14.150  -2.973   0.000  0.00  0.00    +0.048 C 
ENDBRANCH  12  13
ENDBRANCH  11  12
ENDBRANCH  10  11
BRANCH  10  16
ATOM     16  N   UNL     1       8.899  -1.674   0.000  0.00  0.00    -0.325 N 
BRANCH  16  17
ATOM     17  C   UNL     1       9.649  -2.973   0.000  0.00  0.00    +0.102 C 
ATOM     18  C   UNL     1       8.899  -4.272   0.000  0.00  0.00    +0.024 C 
ENDBRANCH  16  17
BRANCH  16  19
ATOM     19  C   UNL     1       7.399  -1.674   0.000  0.00  0.00    +0.102 C 
ATOM     20  C   UNL     1       6.649  -2.973   0.000  0.00  0.00    +0.024 C 
ENDBRANCH  16  19
ENDBRANCH  10  16
TORSDOF 8