REMARK  Name = 641245
REMARK  7 active torsions:
REMARK  status: ('A' for Active; 'I' for Inactive)
REMARK    1  A    between atoms: C_2  and  N_14
REMARK    2  A    between atoms: C_15  and  C_17
REMARK    3  A    between atoms: C_17  and  C_19
REMARK    4  A    between atoms: C_19  and  C_20
REMARK    5  A    between atoms: C_20  and  C_22
REMARK    6  A    between atoms: C_27  and  N_28
REMARK    7  A    between atoms: N_28  and  C_29
REMARK                            x       y       z     vdW  Elec       q    Type
REMARK                         _______ _______ _______ _____ _____    ______ ____
ROOT
ATOM     19  C   UNL     1      11.417  -1.226   0.000  0.00  0.00    +0.173 C 
ATOM     40  O   UNL     1      11.417   0.275   0.000  0.00  0.00    -0.292 OA
ENDROOT
BRANCH  19  20
ATOM     20  C   UNL     1      10.118  -1.976   0.000  0.00  0.00    +0.039 A 
ATOM     21  C   UNL     1       8.819  -1.226   0.000  0.00  0.00    +0.042 A 
ATOM     36  C   UNL     1       7.520  -1.976   0.000  0.00  0.00    +0.024 A 
ATOM     37  C   UNL     1       7.520  -3.475   0.000  0.00  0.00    +0.002 A 
ATOM     38  C   UNL     1       8.819  -4.226   0.000  0.00  0.00    +0.001 A 
ATOM     39  C   UNL     1      10.118  -3.475   0.000  0.00  0.00    +0.013 A 
BRANCH  21  22
ATOM     22  N   UNL     1       8.819   0.275   0.000  0.00  0.00    -0.311 N 
ATOM     23  H   UNL     1       9.671   0.767   0.000  0.00  0.00    +0.152 HD
BRANCH  22  24
ATOM     24  C   UNL     1       7.520   1.025   0.000  0.00  0.00    +0.083 C 
ATOM     25  C   UNL     1       6.221   0.275   0.000  0.00  0.00    +0.036 C 
ATOM     26  C   UNL     1       4.922   1.025   0.000  0.00  0.00    -0.012 A 
ATOM     27  C   UNL     1       3.623   0.275   0.000  0.00  0.00    +0.009 A 
ATOM     28  C   UNL     1       2.324   1.025   0.000  0.00  0.00    +0.001 A 
ATOM     29  C   UNL     1       2.324   2.525   0.000  0.00  0.00    +0.001 A 
ATOM     30  C   UNL     1       3.623   3.275   0.000  0.00  0.00    +0.012 A 
ATOM     31  C   UNL     1       4.922   2.525   0.000  0.00  0.00    +0.033 A 
ATOM     32  C   UNL     1       6.221   3.275   0.000  0.00  0.00    +0.235 C 
ATOM     33  O   UNL     1       6.221   4.774   0.000  0.00  0.00    -0.283 OA
ATOM     34  C   UNL     1       7.520   2.525   0.000  0.00  0.00    +0.247 C 
ATOM     35  O   UNL     1       8.819   3.275   0.000  0.00  0.00    -0.282 OA
ENDBRANCH  22  24
ENDBRANCH  21  22
ENDBRANCH  19  20
BRANCH  19  18
ATOM     18  C   UNL     1      12.716  -1.976   0.000  0.00  0.00    +0.164 C 
BRANCH  18  17
ATOM     17  C   UNL     1      14.015  -1.226   0.000  0.00  0.00    +0.225 C 
ATOM     41  O   UNL     1      14.015   0.275   0.000  0.00  0.00    -0.287 OA
BRANCH  17  16
ATOM     14  N   UNL     1      16.613  -1.226   0.000  0.00  0.00    -0.275 N 
ATOM     15  H   UNL     1      16.613  -0.241   0.000  0.00  0.00    +0.155 HD
ATOM     16  C   UNL     1      15.314  -1.976   0.000  0.00  0.00    +0.284 C 
ATOM     42  O   UNL     1      15.314  -3.475   0.000  0.00  0.00    -0.267 OA
BRANCH  14  13
ATOM      1  C   UNL     1      19.211  -1.226   0.000  0.00  0.00    +0.209 C 
ATOM      2  O   UNL     1      19.211   0.275   0.000  0.00  0.00    -0.285 OA
ATOM      3  C   UNL     1      20.510  -1.976   0.000  0.00  0.00    +0.034 A 
ATOM      4  C   UNL     1      21.809  -1.226   0.000  0.00  0.00    +0.012 A 
ATOM      5  C   UNL     1      23.108  -1.975   0.000  0.00  0.00    +0.001 A 
ATOM      6  C   UNL     1      23.108  -3.475   0.000  0.00  0.00    +0.001 A 
ATOM      7  C   UNL     1      21.809  -4.226   0.000  0.00  0.00    +0.012 A 
ATOM      8  C   UNL     1      20.510  -3.475   0.000  0.00  0.00    +0.034 A 
ATOM      9  C   UNL     1      19.211  -4.226   0.000  0.00  0.00    +0.207 C 
ATOM     10  O   UNL     1      19.211  -5.726   0.000  0.00  0.00    -0.286 OA
ATOM     11  C   UNL     1      17.912  -3.475   0.000  0.00  0.00    +0.113 C 
ATOM     12 CL   UNL     1      16.613  -4.226   0.000  0.00  0.00    -0.077 Cl
ATOM     13  C   UNL     1      17.912  -1.976   0.000  0.00  0.00    +0.104 C 
ENDBRANCH  14  13
ENDBRANCH  17  16
ENDBRANCH  18  17
ENDBRANCH  19  18
TORSDOF 7