REMARK  Name = 674495
REMARK  3 active torsions:
REMARK  status: ('A' for Active; 'I' for Inactive)
REMARK    1  A    between atoms: C_8  and  C_10
REMARK    2  A    between atoms: C_12  and  C_17
REMARK    3  A    between atoms: C_13  and  N_16
REMARK                            x       y       z     vdW  Elec       q    Type
REMARK                         _______ _______ _______ _____ _____    ______ ____
ROOT
ATOM      6  C   UNL     1      -5.250  -2.250   0.000  0.00  0.00    +0.008 A 
ATOM      7  C   UNL     1      -4.500  -0.951   0.000  0.00  0.00    +0.012 A 
ATOM      8  C   UNL     1      -3.000  -0.951   0.000  0.00  0.00    +0.023 A 
ATOM      9  C   UNL     1      -2.250  -2.250   0.000  0.00  0.00    +0.028 A 
ATOM     13  C   UNL     1      -3.000  -3.549   0.000  0.00  0.00    -0.029 A 
ATOM     14  C   UNL     1      -2.250  -4.848   0.000  0.00  0.00    +0.045 C 
ATOM     15  C   UNL     1      -4.500  -3.549   0.000  0.00  0.00    +0.015 A 
ENDROOT
BRANCH   6   5
ATOM      1  C   UNL     1     -11.656  -1.500   0.000  0.00  0.00    +0.002 A 
ATOM      2  C   UNL     1     -10.357  -0.750   0.000  0.00  0.00    +0.029 A 
ATOM      3  C   UNL     1      -9.058  -1.500   0.000  0.00  0.00    +0.079 A 
ATOM      4  N   UNL     1      -7.632  -1.037   0.000  0.00  0.00    -0.239 NA
ATOM      5  C   UNL     1      -6.750  -2.250   0.000  0.00  0.00    +0.109 A 
ATOM     16  S   UNL     1      -7.632  -3.463   0.000  0.00  0.00    -0.067 S 
ATOM     17  C   UNL     1      -9.058  -3.000   0.000  0.00  0.00    +0.040 A 
ATOM     18  C   UNL     1     -10.357  -3.750   0.000  0.00  0.00    +0.017 A 
ATOM     19  C   UNL     1     -11.656  -3.000   0.000  0.00  0.00    +0.001 A 
ENDBRANCH   6   5
BRANCH   9  10
ATOM     10  N   UNL     1      -0.750  -2.250   0.000  0.00  0.00    -0.358 N 
ATOM     11  H   UNL     1      -0.258  -1.397   0.000  0.00  0.00    +0.142 HD
ATOM     12  H   UNL     1      -0.258  -3.103   0.000  0.00  0.00    +0.142 HD
ENDBRANCH   9  10
TORSDOF 2