REMARK  Name = 626120
REMARK  10 active torsions:
REMARK  status: ('A' for Active; 'I' for Inactive)
REMARK    1  A    between atoms: C_1  and  O_7
REMARK    2  A    between atoms: C_2  and  C_18
REMARK    3  A    between atoms: C_4  and  O_16
REMARK    4  A    between atoms: C_5  and  O_6
REMARK    5  A    between atoms: O_7  and  C_8
REMARK    6  A    between atoms: C_8  and  C_9
REMARK    7  A    between atoms: O_16  and  C_17
REMARK    8  A    between atoms: C_18  and  O_19
REMARK    9  A    between atoms: O_19  and  C_20
REMARK   10  A    between atoms: C_20  and  C_21
REMARK                            x       y       z     vdW  Elec       q    Type
REMARK                         _______ _______ _______ _____ _____    ______ ____
ROOT
ATOM      1  C   UNL     1       8.226  -4.910   0.000  0.00  0.00    +0.183 C 
ATOM     11  C   UNL     1       8.689  -6.337   0.000  0.00  0.00    +0.201 C 
ATOM     14  C   UNL     1      10.189  -6.337   0.000  0.00  0.00    +0.281 C 
ATOM     17  O   UNL     1      10.653  -4.910   0.000  0.00  0.00    -0.341 OA
ATOM     18  C   UNL     1       9.439  -4.028   0.000  0.00  0.00    +0.178 C 
ENDROOT
BRANCH  11  12
ATOM     12  O   UNL     1       7.807  -7.550   0.000  0.00  0.00    -0.384 OA
ATOM     13  H   UNL     1       6.843  -7.449   0.000  0.00  0.00    +0.210 HD
ENDBRANCH  11  12
BRANCH  14  15
ATOM     15  O   UNL     1      11.071  -7.550   0.000  0.00  0.00    -0.352 OA
ATOM     16  C   UNL     1      12.563  -7.393   0.000  0.00  0.00    +0.197 C 
ENDBRANCH  14  15
BRANCH   1   2
ATOM      2  O   UNL     1       6.799  -4.446   0.000  0.00  0.00    -0.367 OA
BRANCH   2   3
ATOM      3  C   UNL     1       5.875  -5.628   0.000  0.00  0.00    +0.195 C 
BRANCH   3   4
ATOM      4  C   UNL     1       4.390  -5.420   0.000  0.00  0.00    -0.022 A 
ATOM      5  C   UNL     1       3.466  -6.602   0.000  0.00  0.00    +0.007 A 
ATOM      6  C   UNL     1       1.981  -6.393   0.000  0.00  0.00    +0.020 A 
ATOM      7  C   UNL     1       1.419  -5.002   0.000  0.00  0.00    +0.041 A 
ATOM      8 CL   UNL     1      -0.066  -4.793   0.000  0.00  0.00    -0.084 Cl
ATOM      9  C   UNL     1       2.343  -3.820   0.000  0.00  0.00    +0.020 A 
ATOM     10  C   UNL     1       3.828  -4.029   0.000  0.00  0.00    +0.007 A 
ENDBRANCH   3   4
ENDBRANCH   2   3
ENDBRANCH   1   2
BRANCH  18  19
ATOM     19  C   UNL     1       9.439  -2.528   0.000  0.00  0.00    +0.194 C 
BRANCH  19  20
ATOM     20  O   UNL     1       8.140  -1.778   0.000  0.00  0.00    -0.373 OA
BRANCH  20  21
ATOM     21  C   UNL     1       6.841  -2.528   0.000  0.00  0.00    +0.195 C 
BRANCH  21  22
ATOM     22  C   UNL     1       5.542  -1.778   0.000  0.00  0.00    -0.022 A 
ATOM     23  C   UNL     1       4.243  -2.528   0.000  0.00  0.00    +0.007 A 
ATOM     24  C   UNL     1       2.944  -1.778   0.000  0.00  0.00    +0.020 A 
ATOM     25  C   UNL     1       2.944  -0.278   0.000  0.00  0.00    +0.041 A 
ATOM     26 CL   UNL     1       1.645   0.472   0.000  0.00  0.00    -0.084 Cl
ATOM     27  C   UNL     1       4.243   0.472   0.000  0.00  0.00    +0.020 A 
ATOM     28  C   UNL     1       5.542  -0.278   0.000  0.00  0.00    +0.007 A 
ENDBRANCH  21  22
ENDBRANCH  20  21
ENDBRANCH  19  20
ENDBRANCH  18  19
TORSDOF 9