REMARK  Name = 76027
REMARK  18 active torsions:
REMARK  status: ('A' for Active; 'I' for Inactive)
REMARK    1  A    between atoms: N_1  and  C_3
REMARK    2  A    between atoms: N_2  and  C_4
REMARK    3  A    between atoms: C_6  and  O_11
REMARK    4  A    between atoms: C_15  and  S_19
REMARK    5  A    between atoms: C_17  and  S_21
REMARK    6  A    between atoms: C_18  and  C_22
REMARK    7  A    between atoms: S_19  and  O_23
REMARK    8  A    between atoms: S_21  and  O_26
REMARK    9  A    between atoms: N_29  and  C_31
REMARK   10  A    between atoms: C_36  and  S_37
REMARK   11  A    between atoms: S_37  and  C_38
REMARK   12  A    between atoms: C_43  and  N_44
REMARK   13  A    between atoms: N_45  and  C_46
REMARK   14  A    between atoms: C_48  and  O_51
REMARK   15  A    between atoms: C_52  and  S_56
REMARK   16  A    between atoms: S_56  and  O_58
REMARK   17  A    between atoms: C_57  and  S_61
REMARK   18  A    between atoms: S_61  and  O_62
REMARK                            x       y       z     vdW  Elec       q    Type
REMARK                         _______ _______ _______ _____ _____    ______ ____
ROOT
ATOM     33  C   UNL     1     -16.500 -13.740   0.000  0.00  0.00    +0.034 A 
ATOM     34  C   UNL     1     -15.750 -12.441   0.000  0.00  0.00    +0.024 A 
ATOM     35  C   UNL     1     -14.250 -12.441   0.000  0.00  0.00    +0.017 A 
ATOM     36  C   UNL     1     -13.500 -13.740   0.000  0.00  0.00    +0.013 A 
ATOM     68  C   UNL     1     -14.250 -15.039   0.000  0.00  0.00    +0.017 A 
ATOM     69  C   UNL     1     -15.750 -15.039   0.000  0.00  0.00    +0.024 A 
ENDROOT
BRANCH  33  31
ATOM     29  C   UNL     1     -18.750 -12.441   0.000  0.00  0.00    +0.248 C 
ATOM     30  O   UNL     1     -18.000 -11.142   0.000  0.00  0.00    -0.270 OA
ATOM     31  N   UNL     1     -18.000 -13.740   0.000  0.00  0.00    -0.282 N 
ATOM     32  H   UNL     1     -18.492 -14.593   0.000  0.00  0.00    +0.155 HD
BRANCH  29  28
ATOM     25  C   UNL     1     -23.250 -12.441   0.000  0.00  0.00    +0.086 A 
ATOM     26  C   UNL     1     -22.500 -11.142   0.000  0.00  0.00    +0.030 A 
ATOM     27  C   UNL     1     -21.000 -11.142   0.000  0.00  0.00    +0.015 A 
ATOM     28  C   UNL     1     -20.250 -12.441   0.000  0.00  0.00    +0.037 A 
ATOM     70  C   UNL     1     -21.000 -13.740   0.000  0.00  0.00    +0.015 A 
ATOM     71  C   UNL     1     -22.500 -13.740   0.000  0.00  0.00    +0.030 A 
BRANCH  25  24
ATOM      1  N   UNL     1     -25.500 -11.142   0.000  0.00  0.00    -0.145 NA
ATOM     24  N   UNL     1     -24.750 -12.441   0.000  0.00  0.00    -0.149 NA
BRANCH   1   2
ATOM      2  C   UNL     1     -27.000 -11.142   0.000  0.00  0.00    +0.135 A 
ATOM      3  C   UNL     1     -27.750 -12.441   0.000  0.00  0.00    +0.144 A 
ATOM      4  C   UNL     1     -29.250 -12.441   0.000  0.00  0.00    +0.048 A 
ATOM      5  C   UNL     1     -30.000 -11.142   0.000  0.00  0.00    +0.014 A 
ATOM      6  C   UNL     1     -29.250  -9.843   0.000  0.00  0.00    +0.012 A 
ATOM      7  C   UNL     1     -30.000  -8.544   0.000  0.00  0.00    +0.126 A 
ATOM      8  C   UNL     1     -29.250  -7.245   0.000  0.00  0.00    +0.059 A 
ATOM      9  C   UNL     1     -27.750  -7.245   0.000  0.00  0.00    +0.119 A 
ATOM     15  C   UNL     1     -27.000  -8.544   0.000  0.00  0.00    +0.040 A 
ATOM     23  C   UNL     1     -27.750  -9.843   0.000  0.00  0.00    +0.017 A 
BRANCH   9  10
ATOM     10  S   UNL     1     -27.000  -5.946   0.000  0.00  0.00    +0.110 S 
ATOM     11  O   UNL     1     -25.701  -6.696   0.000  0.00  0.00    -0.142 OA
ATOM     12  O   UNL     1     -28.299  -5.196   0.000  0.00  0.00    -0.142 OA
BRANCH  10  13
ATOM     13  O   UNL     1     -26.250  -4.647   0.000  0.00  0.00    -0.250 OA
ATOM     14  H   UNL     1     -24.750  -4.647   0.000  0.00  0.00    +0.245 HD
ENDBRANCH  10  13
ENDBRANCH   9  10
BRANCH   7  16
ATOM     16  S   UNL     1     -31.500  -8.544   0.000  0.00  0.00    +0.110 S 
ATOM     17  O   UNL     1     -31.500  -7.044   0.000  0.00  0.00    -0.142 OA
ATOM     18  O   UNL     1     -31.500 -10.044   0.000  0.00  0.00    -0.142 OA
BRANCH  16  19
ATOM     19  O   UNL     1     -33.000  -8.544   0.000  0.00  0.00    -0.250 OA
ATOM     20  H   UNL     1     -33.750  -7.245   0.000  0.00  0.00    +0.245 HD
ENDBRANCH  16  19
ENDBRANCH   7  16
BRANCH   3  21
ATOM     21  O   UNL     1     -27.000 -13.740   0.000  0.00  0.00    -0.505 OA
ATOM     22  H   UNL     1     -27.750 -15.040   0.000  0.00  0.00    +0.292 HD
ENDBRANCH   3  21
ENDBRANCH   1   2
ENDBRANCH  25  24
ENDBRANCH  29  28
ENDBRANCH  33  31
BRANCH  36  37
ATOM     37  S   UNL     1     -12.000 -13.740   0.000  0.00  0.00    -0.089 S 
BRANCH  37  38
ATOM     38  C   UNL     1     -11.250 -12.441   0.000  0.00  0.00    +0.013 A 
ATOM     39  C   UNL     1      -9.750 -12.441   0.000  0.00  0.00    +0.017 A 
ATOM     40  C   UNL     1      -9.000 -11.142   0.000  0.00  0.00    +0.030 A 
ATOM     41  C   UNL     1      -9.750  -9.843   0.000  0.00  0.00    +0.086 A 
ATOM     66  C   UNL     1     -11.250  -9.843   0.000  0.00  0.00    +0.030 A 
ATOM     67  C   UNL     1     -12.000 -11.142   0.000  0.00  0.00    +0.017 A 
BRANCH  41  42
ATOM     42  N   UNL     1      -9.000  -8.544   0.000  0.00  0.00    -0.149 NA
ATOM     43  N   UNL     1      -9.750  -7.245   0.000  0.00  0.00    -0.145 NA
BRANCH  43  44
ATOM     44  C   UNL     1      -9.000  -5.946   0.000  0.00  0.00    +0.137 A 
ATOM     45  C   UNL     1      -9.750  -4.647   0.000  0.00  0.00    +0.172 A 
ATOM     46  C   UNL     1      -9.000  -3.348   0.000  0.00  0.00    +0.161 A 
ATOM     47  C   UNL     1      -7.500  -3.348   0.000  0.00  0.00    +0.042 A 
ATOM     48  C   UNL     1      -6.750  -4.647   0.000  0.00  0.00    -0.012 A 
ATOM     49  C   UNL     1      -5.250  -4.647   0.000  0.00  0.00    +0.038 A 
ATOM     50  C   UNL     1      -4.500  -5.946   0.000  0.00  0.00    +0.117 A 
ATOM     51  C   UNL     1      -5.250  -7.245   0.000  0.00  0.00    +0.030 A 
ATOM     52  C   UNL     1      -6.750  -7.245   0.000  0.00  0.00    +0.013 A 
ATOM     65  C   UNL     1      -7.500  -5.946   0.000  0.00  0.00    +0.013 A 
BRANCH  50  53
ATOM     53  S   UNL     1      -3.000  -5.946   0.000  0.00  0.00    +0.110 S 
ATOM     54  O   UNL     1      -3.000  -7.446   0.000  0.00  0.00    -0.142 OA
ATOM     55  O   UNL     1      -3.000  -4.446   0.000  0.00  0.00    -0.142 OA
BRANCH  53  56
ATOM     56  O   UNL     1      -1.500  -5.946   0.000  0.00  0.00    -0.250 OA
ATOM     57  H   UNL     1      -0.750  -4.647   0.000  0.00  0.00    +0.245 HD
ENDBRANCH  53  56
ENDBRANCH  50  53
BRANCH  46  58
ATOM     58  S   UNL     1      -9.750  -2.049   0.000  0.00  0.00    +0.113 S 
ATOM     59  O   UNL     1      -8.451  -1.299   0.000  0.00  0.00    -0.142 OA
ATOM     60  O   UNL     1     -11.049  -2.799   0.000  0.00  0.00    -0.142 OA
BRANCH  58  61
ATOM     61  O   UNL     1     -10.500  -0.750   0.000  0.00  0.00    -0.250 OA
ATOM     62  H   UNL     1     -12.000  -0.750   0.000  0.00  0.00    +0.245 HD
ENDBRANCH  58  61
ENDBRANCH  46  58
BRANCH  45  63
ATOM     63  O   UNL     1     -11.250  -4.647   0.000  0.00  0.00    -0.503 OA
ATOM     64  H   UNL     1     -12.000  -5.946   0.000  0.00  0.00    +0.292 HD
ENDBRANCH  45  63
ENDBRANCH  43  44
ENDBRANCH  41  42
ENDBRANCH  37  38
ENDBRANCH  36  37
TORSDOF 18