REMARK  Name = 66300
REMARK  15 active torsions:
REMARK  status: ('A' for Active; 'I' for Inactive)
REMARK    1  A    between atoms: N_1  and  N_25
REMARK    2  A    between atoms: C_2  and  C_12
REMARK    3  A    between atoms: C_3  and  S_13
REMARK    4  A    between atoms: C_6  and  O_8
REMARK    5  A    between atoms: C_7  and  C_9
REMARK    6  A    between atoms: C_9  and  C_10
REMARK    7  A    between atoms: C_9  and  C_11
REMARK    8  A    between atoms: S_13  and  O_16
REMARK    9  A    between atoms: C_17  and  C_18
REMARK   10  A    between atoms: C_18  and  C_19
REMARK   11  A    between atoms: C_19  and  C_20
REMARK   12  A    between atoms: C_20  and  C_21
REMARK   13  A    between atoms: C_21  and  C_22
REMARK   14  A    between atoms: C_21  and  C_24
REMARK   15  A    between atoms: C_22  and  C_23
REMARK                            x       y       z     vdW  Elec       q    Type
REMARK                         _______ _______ _______ _____ _____    ______ ____
ROOT
ATOM      1  C   UNL     1      -3.119  12.597   0.000  0.00  0.00    -0.020 A 
ATOM      2  C   UNL     1      -3.119  14.097   0.000  0.00  0.00    +0.046 C 
ATOM      3  C   UNL     1      -1.821  11.847   0.000  0.00  0.00    +0.120 A 
ATOM      9  C   UNL     1      -1.821  10.347   0.000  0.00  0.00    +0.037 A 
ATOM     10  C   UNL     1      -3.119   9.597   0.000  0.00  0.00    -0.001 A 
ATOM     14  C   UNL     1      -4.418  10.347   0.000  0.00  0.00    +0.121 A 
ATOM     17  C   UNL     1      -4.418  11.847   0.000  0.00  0.00    +0.051 A 
ENDROOT
BRANCH   3   4
ATOM      4  S   UNL     1      -0.521  12.597   0.000  0.00  0.00    +0.110 S 
ATOM      7  O   UNL     1       0.229  11.298   0.000  0.00  0.00    -0.142 OA
ATOM      8  O   UNL     1      -1.271  13.896   0.000  0.00  0.00    -0.142 OA
BRANCH   4   5
ATOM      5  O   UNL     1       0.778  13.347   0.000  0.00  0.00    -0.250 OA
ATOM      6  H   UNL     1       1.618  12.862   0.000  0.00  0.00    +0.245 HD
ENDBRANCH   4   5
ENDBRANCH   3   4
BRANCH  10  11
ATOM     11  C   UNL     1      -3.119   8.097   0.000  0.00  0.00    +0.016 C 
ATOM     12  C   UNL     1      -4.419   7.347   0.000  0.00  0.00    +0.012 C 
ATOM     13  C   UNL     1      -1.821   7.347   0.000  0.00  0.00    +0.012 C 
ENDBRANCH  10  11
BRANCH  14  15
ATOM     15  O   UNL     1      -5.718   9.597   0.000  0.00  0.00    -0.506 OA
ATOM     16  H   UNL     1      -6.529  10.065   0.000  0.00  0.00    +0.292 HD
ENDBRANCH  14  15
TORSDOF 4