REMARK  Name = 5159
REMARK  14 active torsions:
REMARK  status: ('A' for Active; 'I' for Inactive)
REMARK    1  A    between atoms: C_1  and  C_10
REMARK    2  A    between atoms: C_2  and  C_23
REMARK    3  A    between atoms: C_3  and  C_24
REMARK    4  A    between atoms: C_4  and  O_44
REMARK    5  A    between atoms: C_13  and  O_45
REMARK    6  A    between atoms: C_19  and  O_33
REMARK    7  A    between atoms: C_25  and  O_34
REMARK    8  A    between atoms: C_26  and  O_35
REMARK    9  A    between atoms: C_27  and  O_36
REMARK   10  A    between atoms: C_28  and  O_37
REMARK   11  A    between atoms: C_29  and  O_44
REMARK   12  A    between atoms: C_30  and  O_46
REMARK   13  A    between atoms: C_31  and  O_46
REMARK   14  A    between atoms: C_32  and  O_45
REMARK                            x       y       z     vdW  Elec       q    Type
REMARK                         _______ _______ _______ _____ _____    ______ ____
ROOT
ATOM     22  O   UNL     1      -8.624  -5.117   0.000  0.00  0.00    -0.460 OA
ENDROOT
BRANCH  22  21
ATOM      1  C   UNL     1      -7.430 -11.887   0.000  0.00  0.00    +0.044 C 
ATOM      2  C   UNL     1      -6.119 -11.157   0.000  0.00  0.00    -0.036 A 
ATOM      3  C   UNL     1      -6.096  -9.657   0.000  0.00  0.00    +0.074 A 
ATOM      4  C   UNL     1      -7.383  -8.887   0.000  0.00  0.00    +0.345 A 
ATOM      5  O   UNL     1      -7.360  -7.387   0.000  0.00  0.00    -0.421 OA
ATOM      6  C   UNL     1      -6.050  -6.657   0.000  0.00  0.00    +0.152 A 
ATOM      7  C   UNL     1      -4.762  -7.427   0.000  0.00  0.00    +0.047 A 
ATOM      8  C   UNL     1      -3.452  -6.697   0.000  0.00  0.00    +0.113 A 
ATOM      9  C   UNL     1      -2.165  -7.468   0.000  0.00  0.00    +0.349 A 
ATOM     10  O   UNL     1      -2.188  -8.967   0.000  0.00  0.00    -0.422 OA
ATOM     11  C   UNL     1      -3.498  -9.697   0.000  0.00  0.00    +0.141 A 
ATOM     12  C   UNL     1      -3.522 -11.197   0.000  0.00  0.00    +0.047 A 
ATOM     13  O   UNL     1      -0.854  -6.738   0.000  0.00  0.00    -0.244 OA
ATOM     14  C   UNL     1      -3.429  -5.198   0.000  0.00  0.00    +0.139 A 
ATOM     17  C   UNL     1      -4.716  -4.428   0.000  0.00  0.00    +0.031 A 
ATOM     18  C   UNL     1      -4.693  -2.928   0.000  0.00  0.00    +0.012 A 
ATOM     19  C   UNL     1      -5.980  -2.158   0.000  0.00  0.00    +0.004 A 
ATOM     20  C   UNL     1      -7.291  -2.888   0.000  0.00  0.00    +0.046 A 
ATOM     21  C   UNL     1      -7.314  -4.388   0.000  0.00  0.00    +0.135 A 
ATOM     48  C   UNL     1      -6.027  -5.157   0.000  0.00  0.00    +0.070 A 
ATOM     49  O   UNL     1      -8.694  -9.617   0.000  0.00  0.00    -0.244 OA
ATOM     50  C   UNL     1      -4.786  -8.927   0.000  0.00  0.00    +0.043 A 
ATOM     51  C   UNL     1      -4.832 -11.927   0.000  0.00  0.00    +0.008 A 
BRANCH  14  15
ATOM     15  O   UNL     1      -2.118  -4.468   0.000  0.00  0.00    -0.505 OA
ATOM     16  H   UNL     1      -2.095  -2.968   0.000  0.00  0.00    +0.292 HD
ENDBRANCH  14  15
ENDBRANCH  22  21
BRANCH  22  23
ATOM     23  C   UNL     1      -9.912  -4.347   0.000  0.00  0.00    +0.340 C 
ATOM     24  O   UNL     1      -9.888  -2.848   0.000  0.00  0.00    -0.334 OA
ATOM     25  C   UNL     1     -11.176  -2.078   0.000  0.00  0.00    +0.150 C 
ATOM     26  C   UNL     1     -12.486  -2.807   0.000  0.00  0.00    +0.174 C 
ATOM     29  C   UNL     1     -12.509  -4.307   0.000  0.00  0.00    +0.180 C 
ATOM     32  C   UNL     1     -11.153  -0.578   0.000  0.00  0.00    +0.041 C 
ATOM     33  C   UNL     1     -11.222  -5.077   0.000  0.00  0.00    +0.221 C 
BRANCH  26  27
ATOM     27  O   UNL     1     -13.774  -2.037   0.000  0.00  0.00    -0.387 OA
ATOM     28  H   UNL     1     -13.750  -0.538   0.000  0.00  0.00    +0.210 HD
ENDBRANCH  26  27
BRANCH  29  30
ATOM     30  O   UNL     1     -13.820  -5.037   0.000  0.00  0.00    -0.386 OA
ATOM     31  H   UNL     1     -15.107  -4.267   0.000  0.00  0.00    +0.210 HD
ENDBRANCH  29  30
BRANCH  33  34
ATOM     34  O   UNL     1     -11.245  -6.577   0.000  0.00  0.00    -0.337 OA
BRANCH  34  35
ATOM     35  C   UNL     1     -12.556  -7.307   0.000  0.00  0.00    +0.282 C 
ATOM     36  O   UNL     1     -13.843  -6.537   0.000  0.00  0.00    -0.343 OA
ATOM     37  C   UNL     1     -15.153  -7.267   0.000  0.00  0.00    +0.149 C 
ATOM     38  C   UNL     1     -15.177  -8.767   0.000  0.00  0.00    +0.174 C 
ATOM     41  C   UNL     1     -13.889  -9.537   0.000  0.00  0.00    +0.182 C 
ATOM     44  C   UNL     1     -16.441  -6.497   0.000  0.00  0.00    +0.041 C 
ATOM     45  C   UNL     1     -12.579  -8.807   0.000  0.00  0.00    +0.201 C 
BRANCH  38  39
ATOM     39  O   UNL     1     -16.487  -9.496   0.000  0.00  0.00    -0.387 OA
ATOM     40  H   UNL     1     -17.775  -8.726   0.000  0.00  0.00    +0.210 HD
ENDBRANCH  38  39
BRANCH  41  42
ATOM     42  O   UNL     1     -13.913 -11.036   0.000  0.00  0.00    -0.374 OA
ATOM     43  C   UNL     1     -15.223 -11.766   0.000  0.00  0.00    +0.194 C 
ENDBRANCH  41  42
BRANCH  45  46
ATOM     46  O   UNL     1     -11.292  -9.577   0.000  0.00  0.00    -0.384 OA
ATOM     47  H   UNL     1     -11.315 -11.076   0.000  0.00  0.00    +0.210 HD
ENDBRANCH  45  46
ENDBRANCH  34  35
ENDBRANCH  33  34
ENDBRANCH  22  23
TORSDOF 10