REMARK  Name = 634650
REMARK  3 active torsions:
REMARK  status: ('A' for Active; 'I' for Inactive)
REMARK    1  A    between atoms: C_8  and  C_11
REMARK    2  A    between atoms: C_11  and  C_13
REMARK    3  A    between atoms: C_13  and  C_14
REMARK                            x       y       z     vdW  Elec       q    Type
REMARK                         _______ _______ _______ _____ _____    ______ ____
ROOT
ATOM      1  C   UNL     1     -12.410  -2.554   0.000  0.00  0.00    +0.008 A 
ATOM      2  C   UNL     1     -11.111  -3.304   0.000  0.00  0.00    -0.017 A 
ATOM      3  C   UNL     1      -9.812  -2.554   0.000  0.00  0.00    +0.020 A 
ATOM      4  C   UNL     1      -8.513  -3.304   0.000  0.00  0.00    +0.018 A 
ATOM     14  C   UNL     1      -8.513  -4.804   0.000  0.00  0.00    +0.012 A 
ATOM     15  C   UNL     1      -9.812  -5.554   0.000  0.00  0.00    +0.009 A 
ATOM     16  C   UNL     1     -11.111  -4.804   0.000  0.00  0.00    -0.018 A 
ATOM     17  C   UNL     1     -12.410  -5.554   0.000  0.00  0.00    +0.008 A 
ATOM     18  C   UNL     1     -13.709  -4.804   0.000  0.00  0.00    +0.001 A 
ATOM     19  C   UNL     1     -13.709  -3.304   0.000  0.00  0.00    +0.001 A 
ENDROOT
BRANCH   4   5
ATOM      5  C   UNL     1      -7.214  -2.554   0.000  0.00  0.00    +0.167 C 
ATOM     13  O   UNL     1      -7.214  -1.054   0.000  0.00  0.00    -0.292 OA
BRANCH   5   6
ATOM      6  C   UNL     1      -5.915  -3.304   0.000  0.00  0.00    +0.128 C 
BRANCH   6   7
ATOM      7  C   UNL     1      -4.616  -2.554   0.000  0.00  0.00    +0.207 C 
ATOM      8  C   UNL     1      -4.459  -1.062   0.000  0.00  0.00    +0.024 C 
ATOM      9  C   UNL     1      -2.992  -0.750   0.000  0.00  0.00    +0.091 C 
ATOM     10  C   UNL     1      -2.242  -2.049   0.000  0.00  0.00    +0.332 C 
ATOM     11  O   UNL     1      -0.750  -2.206   0.000  0.00  0.00    -0.246 OA
ATOM     12  O   UNL     1      -3.245  -3.164   0.000  0.00  0.00    -0.454 OA
ENDBRANCH   6   7
ENDBRANCH   5   6
ENDBRANCH   4   5
TORSDOF 3