REMARK  Name = 635975
REMARK  6 active torsions:
REMARK  status: ('A' for Active; 'I' for Inactive)
REMARK    1  A    between atoms: C_3  and  C_7
REMARK    2  A    between atoms: C_6  and  O_11
REMARK    3  A    between atoms: C_7  and  C_8
REMARK    4  A    between atoms: C_7  and  C_9
REMARK    5  A    between atoms: C_7  and  C_10
REMARK    6  A    between atoms: O_11  and  C_12
REMARK                            x       y       z     vdW  Elec       q    Type
REMARK                         _______ _______ _______ _____ _____    ______ ____
ROOT
ATOM      1  C   UNL     1      -6.457   0.954   0.000  0.00  0.00    +0.046 A 
ATOM      2  C   UNL     1      -5.397  -0.107   0.000  0.00  0.00    +0.124 A 
ATOM      8  C   UNL     1      -5.785  -1.556   0.000  0.00  0.00    +0.046 A 
ATOM      9  C   UNL     1      -7.234  -1.944   0.000  0.00  0.00    +0.008 A 
ATOM     10  C   UNL     1      -8.294  -0.883   0.000  0.00  0.00    -0.042 A 
ATOM     15  C   UNL     1      -7.906   0.566   0.000  0.00  0.00    +0.008 A 
ENDROOT
BRANCH  10  11
ATOM     11  C   UNL     1      -9.743  -1.272   0.000  0.00  0.00    -0.013 C 
ATOM     12  C   UNL     1     -10.132  -2.720   0.000  0.00  0.00    +0.015 C 
ATOM     13  C   UNL     1     -11.192  -1.660   0.000  0.00  0.00    +0.015 C 
ATOM     14  C   UNL     1     -10.804  -0.211   0.000  0.00  0.00    +0.015 C 
ENDBRANCH  10  11
BRANCH   2   3
ATOM      3  O   UNL     1      -3.948   0.281   0.000  0.00  0.00    -0.464 OA
BRANCH   3   4
ATOM      4  C   UNL     1      -2.887  -0.779   0.000  0.00  0.00    +0.309 C 
ATOM      5  O   UNL     1      -1.387  -0.779   0.000  0.00  0.00    -0.341 OA
ATOM      6  C   UNL     1      -1.387  -2.279   0.000  0.00  0.00    +0.170 C 
ATOM      7  C   UNL     1      -2.887  -2.279   0.000  0.00  0.00    +0.103 C 
ENDBRANCH   3   4
ENDBRANCH   2   3
TORSDOF 3