REMARK  Name = 63984
REMARK  4 active torsions:
REMARK  status: ('A' for Active; 'I' for Inactive)
REMARK    1  A    between atoms: C_5  and  C_17
REMARK    2  A    between atoms: C_10  and  N_13
REMARK    3  A    between atoms: C_12  and  O_18
REMARK    4  A    between atoms: O_15  and  C_17
REMARK                            x       y       z     vdW  Elec       q    Type
REMARK                         _______ _______ _______ _____ _____    ______ ____
ROOT
ATOM      1  N   UNL     1      -1.451   4.070   0.000  0.00  0.00    -0.219 NA
ATOM      2  C   UNL     1      -2.290   2.827   0.000  0.00  0.00    +0.225 A 
ATOM      3  N   UNL     1      -1.634   1.478   0.000  0.00  0.00    -0.216 NA
ATOM      4  C   UNL     1      -0.137   1.373   0.000  0.00  0.00    +0.167 A 
ATOM      5  N   UNL     1       0.785   0.190   0.000  0.00  0.00    -0.286 N 
ATOM      6  C   UNL     1       2.195   0.702   0.000  0.00  0.00    +0.203 A 
ATOM      7  N   UNL     1       2.144   2.201   0.000  0.00  0.00    -0.231 NA
ATOM     18  C   UNL     1       0.702   2.616   0.000  0.00  0.00    +0.147 A 
ATOM     19  C   UNL     1       0.046   3.964   0.000  0.00  0.00    +0.147 A 
ATOM     20  N   UNL     1       0.885   5.207   0.000  0.00  0.00    -0.341 N 
ATOM     21  H   UNL     1       0.454   6.092   0.000  0.00  0.00    +0.144 HD
ATOM     22  H   UNL     1       1.867   5.138   0.000  0.00  0.00    +0.144 HD
ENDROOT
BRANCH   5   8
ATOM      8  C   UNL     1       0.371  -1.252   0.000  0.00  0.00    +0.251 C 
ATOM      9  C   UNL     1       1.294  -2.434   0.000  0.00  0.00    +0.167 C 
ATOM     12  C   UNL     1       0.454  -3.677   0.000  0.00  0.00    +0.069 C 
ATOM     13  C   UNL     1      -0.988  -3.263   0.000  0.00  0.00    +0.149 C 
ATOM     17  O   UNL     1      -1.039  -1.764   0.000  0.00  0.00    -0.348 OA
BRANCH   9  10
ATOM     10  O   UNL     1       2.793  -2.383   0.000  0.00  0.00    -0.387 OA
ATOM     11  H   UNL     1       3.306  -3.206   0.000  0.00  0.00    +0.210 HD
ENDBRANCH   9  10
BRANCH  13  14
ATOM     14  C   UNL     1      -2.170  -4.186   0.000  0.00  0.00    +0.187 C 
BRANCH  14  15
ATOM     15  O   UNL     1      -1.962  -5.671   0.000  0.00  0.00    -0.392 OA
ATOM     16  H   UNL     1      -2.727  -6.268   0.000  0.00  0.00    +0.210 HD
ENDBRANCH  14  15
ENDBRANCH  13  14
ENDBRANCH   5   8
TORSDOF 4