REMARK  Name = 624947
REMARK  5 active torsions:
REMARK  status: ('A' for Active; 'I' for Inactive)
REMARK    1  A    between atoms: C_5  and  C_19
REMARK    2  A    between atoms: C_6  and  C_9
REMARK    3  A    between atoms: N_7  and  N_20
REMARK    4  A    between atoms: N_11  and  C_14
REMARK    5  A    between atoms: C_21  and  C_26
REMARK                            x       y       z     vdW  Elec       q    Type
REMARK                         _______ _______ _______ _____ _____    ______ ____
ROOT
ATOM      1  C   UNL     1     -10.118  -2.525   0.000  0.00  0.00    +0.157 A 
ATOM      2  N   UNL     1     -10.118  -1.025   0.000  0.00  0.00    -0.220 N 
ATOM      3  H   UNL     1      -9.265  -0.532   0.000  0.00  0.00    +0.176 HD
ATOM     13  C   UNL     1      -8.819  -3.275   0.000  0.00  0.00    +0.097 A 
ATOM     25  C   UNL     1      -8.819  -4.774   0.000  0.00  0.00    +0.033 A 
ATOM     26  C   UNL     1      -7.520  -5.524   0.000  0.00  0.00    +0.064 C 
ATOM     27  N   UNL     1     -10.118  -5.524   0.000  0.00  0.00    -0.310 N 
ATOM     28  H   UNL     1     -10.118  -6.509   0.000  0.00  0.00    +0.170 HD
ATOM     29  C   UNL     1     -11.417  -4.774   0.000  0.00  0.00    +0.348 A 
ATOM     30  O   UNL     1     -12.716  -5.524   0.000  0.00  0.00    -0.245 OA
ATOM     31  N   UNL     1     -11.417  -3.275   0.000  0.00  0.00    -0.176 NA
ENDROOT
BRANCH  13  14
ATOM     14  C   UNL     1      -7.520  -2.525   0.000  0.00  0.00    +0.253 C 
ATOM     15  N   UNL     1      -6.221  -3.275   0.000  0.00  0.00    -0.281 N 
ATOM     16  H   UNL     1      -6.221  -4.259   0.000  0.00  0.00    +0.155 HD
ATOM     24  O   UNL     1      -7.520  -1.025   0.000  0.00  0.00    -0.270 OA
BRANCH  15  17
ATOM     17  C   UNL     1      -4.922  -2.525   0.000  0.00  0.00    +0.034 A 
ATOM     18  C   UNL     1      -3.623  -3.275   0.000  0.00  0.00    +0.025 A 
ATOM     19  C   UNL     1      -2.324  -2.525   0.000  0.00  0.00    +0.022 A 
ATOM     20  C   UNL     1      -2.324  -1.025   0.000  0.00  0.00    +0.041 A 
ATOM     21 CL   UNL     1      -1.025  -0.275   0.000  0.00  0.00    -0.084 Cl
ATOM     22  C   UNL     1      -3.623  -0.275   0.000  0.00  0.00    +0.022 A 
ATOM     23  C   UNL     1      -4.922  -1.025   0.000  0.00  0.00    +0.025 A 
ENDBRANCH  15  17
ENDBRANCH  13  14
BRANCH   2   4
ATOM      4  N   UNL     1     -11.417  -0.275   0.000  0.00  0.00    -0.189 NA
ATOM      5  C   UNL     1     -11.417   1.226   0.000  0.00  0.00    +0.138 C 
BRANCH   5   6
ATOM      6  C   UNL     1     -12.716   1.976   0.000  0.00  0.00    -0.005 A 
ATOM      7  C   UNL     1     -12.716   3.475   0.000  0.00  0.00    +0.011 A 
ATOM      8  C   UNL     1     -14.015   4.226   0.000  0.00  0.00    +0.020 A 
ATOM      9  C   UNL     1     -15.314   3.475   0.000  0.00  0.00    +0.041 A 
ATOM     10 CL   UNL     1     -16.613   4.226   0.000  0.00  0.00    -0.084 Cl
ATOM     11  C   UNL     1     -15.314   1.976   0.000  0.00  0.00    +0.020 A 
ATOM     12  C   UNL     1     -14.015   1.226   0.000  0.00  0.00    +0.011 A 
ENDBRANCH   5   6
ENDBRANCH   2   4
TORSDOF 4