REMARK  Name = 641253
REMARK  7 active torsions:
REMARK  status: ('A' for Active; 'I' for Inactive)
REMARK    1  A    between atoms: C_6  and  N_11
REMARK    2  A    between atoms: C_12  and  C_14
REMARK    3  A    between atoms: C_14  and  C_16
REMARK    4  A    between atoms: C_16  and  C_17
REMARK    5  A    between atoms: C_17  and  C_19
REMARK    6  A    between atoms: C_21  and  N_22
REMARK    7  A    between atoms: N_22  and  C_23
REMARK                            x       y       z     vdW  Elec       q    Type
REMARK                         _______ _______ _______ _____ _____    ______ ____
ROOT
ATOM      1  C   UNL     1     -11.316  -7.399   0.000  0.00  0.00    +0.002 A 
ATOM      2  C   UNL     1     -10.017  -6.649   0.000  0.00  0.00    +0.001 A 
ATOM      3  C   UNL     1      -8.718  -7.399   0.000  0.00  0.00    +0.013 A 
ATOM      4  C   UNL     1      -8.718  -8.899   0.000  0.00  0.00    +0.039 A 
ATOM      5  C   UNL     1     -10.017  -9.649   0.000  0.00  0.00    +0.042 A 
ATOM     36  C   UNL     1     -11.316  -8.899   0.000  0.00  0.00    +0.024 A 
ENDROOT
BRANCH   5   6
ATOM      6  N   UNL     1     -10.017 -11.150   0.000  0.00  0.00    -0.313 N 
ATOM      7  H   UNL     1      -9.165 -11.642   0.000  0.00  0.00    +0.152 HD
BRANCH   6   8
ATOM      8  C   UNL     1     -11.316 -11.900   0.000  0.00  0.00    +0.043 C 
ATOM      9  C   UNL     1     -12.615 -11.150   0.000  0.00  0.00    +0.078 C 
ATOM     10  C   UNL     1     -13.914 -11.900   0.000  0.00  0.00    +0.228 C 
ATOM     11  O   UNL     1     -15.213 -11.150   0.000  0.00  0.00    -0.284 OA
ATOM     12  C   UNL     1     -13.914 -13.400   0.000  0.00  0.00    +0.233 C 
ATOM     13  O   UNL     1     -15.213 -14.150   0.000  0.00  0.00    -0.283 OA
ATOM     14  C   UNL     1     -12.615 -14.150   0.000  0.00  0.00    +0.034 A 
ATOM     15  C   UNL     1     -12.615 -15.650   0.000  0.00  0.00    +0.012 A 
ATOM     16  C   UNL     1     -11.316 -16.400   0.000  0.00  0.00    +0.001 A 
ATOM     17  C   UNL     1     -10.017 -15.650   0.000  0.00  0.00    +0.001 A 
ATOM     18  C   UNL     1     -10.017 -14.150   0.000  0.00  0.00    +0.010 A 
ATOM     19  C   UNL     1     -11.316 -13.400   0.000  0.00  0.00    +0.007 A 
ENDBRANCH   6   8
ENDBRANCH   5   6
BRANCH   4  20
ATOM     20  C   UNL     1      -7.419  -9.649   0.000  0.00  0.00    +0.173 C 
ATOM     21  O   UNL     1      -7.419 -11.150   0.000  0.00  0.00    -0.292 OA
BRANCH  20  22
ATOM     22  C   UNL     1      -6.120  -8.899   0.000  0.00  0.00    +0.164 C 
BRANCH  22  23
ATOM     23  C   UNL     1      -6.120  -7.399   0.000  0.00  0.00    +0.225 C 
ATOM     24  O   UNL     1      -7.419  -6.649   0.000  0.00  0.00    -0.287 OA
BRANCH  23  25
ATOM     25  C   UNL     1      -4.821  -6.649   0.000  0.00  0.00    +0.284 C 
ATOM     26  O   UNL     1      -3.522  -7.399   0.000  0.00  0.00    -0.267 OA
ATOM     27  N   UNL     1      -4.821  -5.149   0.000  0.00  0.00    -0.279 N 
ATOM     28  H   UNL     1      -5.674  -4.657   0.000  0.00  0.00    +0.155 HD
BRANCH  27  29
ATOM     29  C   UNL     1      -3.522  -4.399   0.000  0.00  0.00    +0.034 A 
ATOM     30  C   UNL     1      -3.522  -2.900   0.000  0.00  0.00    +0.025 A 
ATOM     31  C   UNL     1      -2.223  -2.150   0.000  0.00  0.00    +0.022 A 
ATOM     32  C   UNL     1      -0.924  -2.900   0.000  0.00  0.00    +0.041 A 
ATOM     33 CL   UNL     1       0.375  -2.150   0.000  0.00  0.00    -0.084 Cl
ATOM     34  C   UNL     1      -0.924  -4.399   0.000  0.00  0.00    +0.022 A 
ATOM     35  C   UNL     1      -2.223  -5.149   0.000  0.00  0.00    +0.025 A 
ENDBRANCH  27  29
ENDBRANCH  23  25
ENDBRANCH  22  23
ENDBRANCH  20  22
ENDBRANCH   4  20
TORSDOF 7