REMARK  Name = 667235
REMARK  6 active torsions:
REMARK  status: ('A' for Active; 'I' for Inactive)
REMARK    1  A    between atoms: C_3  and  O_18
REMARK    2  A    between atoms: C_7  and  C_11
REMARK    3  A    between atoms: C_11  and  C_12
REMARK    4  A    between atoms: C_12  and  O_14
REMARK    5  A    between atoms: O_14  and  C_15
REMARK    6  A    between atoms: C_15  and  C_16
REMARK                            x       y       z     vdW  Elec       q    Type
REMARK                         _______ _______ _______ _____ _____    ______ ____
ROOT
ATOM      1  C   UNL     1     -10.118  -1.025   0.000  0.00  0.00    +0.015 A 
ATOM      2  C   UNL     1      -8.819  -0.275   0.000  0.00  0.00    +0.022 A 
ATOM      3  C   UNL     1      -7.520  -1.025   0.000  0.00  0.00    -0.019 A 
ATOM     10  C   UNL     1      -6.221  -0.275   0.000  0.00  0.00    +0.096 A 
ATOM     11  C   UNL     1      -6.221   1.226   0.000  0.00  0.00    +0.338 A 
ATOM     12  O   UNL     1      -4.922   1.976   0.000  0.00  0.00    -0.245 OA
ATOM     13  O   UNL     1      -7.520   1.975   0.000  0.00  0.00    -0.422 OA
ATOM     14  C   UNL     1      -8.819   1.225   0.000  0.00  0.00    +0.143 A 
ATOM     15  C   UNL     1     -10.118   1.975   0.000  0.00  0.00    +0.092 A 
ATOM     16  C   UNL     1     -11.417   1.225   0.000  0.00  0.00    +0.120 A 
ATOM     19  C   UNL     1     -11.417  -0.275   0.000  0.00  0.00    +0.046 A 
ENDROOT
BRANCH  16  17
ATOM     17  O   UNL     1     -12.716   1.975   0.000  0.00  0.00    -0.507 OA
ATOM     18  H   UNL     1     -12.716   2.912   0.000  0.00  0.00    +0.292 HD
ENDBRANCH  16  17
BRANCH   3   4
ATOM      4  C   UNL     1      -7.520  -2.525   0.000  0.00  0.00    +0.156 C 
BRANCH   4   5
ATOM      5  C   UNL     1      -6.221  -3.275   0.000  0.00  0.00    +0.311 C 
ATOM      9  O   UNL     1      -6.221  -4.774   0.000  0.00  0.00    -0.250 OA
BRANCH   5   6
ATOM      6  O   UNL     1      -4.922  -2.525   0.000  0.00  0.00    -0.465 OA
BRANCH   6   7
ATOM      7  C   UNL     1      -3.623  -3.275   0.000  0.00  0.00    +0.229 C 
ATOM      8  C   UNL     1      -2.324  -2.525   0.000  0.00  0.00    +0.048 C 
ENDBRANCH   6   7
ENDBRANCH   5   6
ENDBRANCH   4   5
ENDBRANCH   3   4
TORSDOF 5