REMARK  Name = 59269
REMARK  21 active torsions:
REMARK  status: ('A' for Active; 'I' for Inactive)
REMARK    1  A    between atoms: C_1  and  C_2
REMARK    2  A    between atoms: C_2  and  C_3
REMARK    3  A    between atoms: C_3  and  C_4
REMARK    4  A    between atoms: C_4  and  C_5
REMARK    5  A    between atoms: C_5  and  C_6
REMARK    6  A    between atoms: C_6  and  C_7
REMARK    7  A    between atoms: C_7  and  C_8
REMARK    8  A    between atoms: C_8  and  C_9
REMARK    9  A    between atoms: C_9  and  C_10
REMARK   10  A    between atoms: C_10  and  C_11
REMARK   11  A    between atoms: C_11  and  C_12
REMARK   12  A    between atoms: C_12  and  C_13
REMARK   13  A    between atoms: C_13  and  C_14
REMARK   14  A    between atoms: C_14  and  C_15
REMARK   15  A    between atoms: C_15  and  C_16
REMARK   16  A    between atoms: C_16  and  O_17
REMARK   17  A    between atoms: O_17  and  C_18
REMARK   18  A    between atoms: C_18  and  C_19
REMARK   19  A    between atoms: C_19  and  O_20
REMARK   20  A    between atoms: C_19  and  C_21
REMARK   21  A    between atoms: C_21  and  O_22
REMARK                            x       y       z     vdW  Elec       q    Type
REMARK                         _______ _______ _______ _____ _____    ______ ____
ROOT
ATOM     12  C   UNL     1      11.525  -2.324   0.000  0.00  0.00    +0.000 C 
ENDROOT
BRANCH  12  11
ATOM     11  C   UNL     1      12.275  -3.623   0.000  0.00  0.00    +0.000 C 
BRANCH  11  10
ATOM     10  C   UNL     1      13.775  -3.623   0.000  0.00  0.00    -0.000 C 
BRANCH  10   9
ATOM      9  C   UNL     1      14.525  -4.922   0.000  0.00  0.00    -0.000 C 
BRANCH   9   8
ATOM      8  C   UNL     1      16.025  -4.922   0.000  0.00  0.00    -0.000 C 
BRANCH   8   7
ATOM      7  C   UNL     1      16.775  -3.623   0.000  0.00  0.00    -0.000 C 
BRANCH   7   6
ATOM      6  C   UNL     1      18.275  -3.623   0.000  0.00  0.00    -0.000 C 
BRANCH   6   5
ATOM      5  C   UNL     1      19.025  -4.922   0.000  0.00  0.00    -0.000 C 
BRANCH   5   4
ATOM      4  C   UNL     1      20.525  -4.922   0.000  0.00  0.00    -0.000 C 
BRANCH   4   3
ATOM      3  C   UNL     1      21.275  -6.221   0.000  0.00  0.00    -0.000 C 
BRANCH   3   2
ATOM      1  C   UNL     1      23.525  -7.520   0.000  0.00  0.00    +0.004 C 
ATOM      2  C   UNL     1      22.775  -6.221   0.000  0.00  0.00    -0.003 C 
ENDBRANCH   3   2
ENDBRANCH   4   3
ENDBRANCH   5   4
ENDBRANCH   6   5
ENDBRANCH   7   6
ENDBRANCH   8   7
ENDBRANCH   9   8
ENDBRANCH  10   9
ENDBRANCH  11  10
ENDBRANCH  12  11
BRANCH  12  13
ATOM     13  C   UNL     1      10.025  -2.324   0.000  0.00  0.00    +0.000 C 
BRANCH  13  14
ATOM     14  C   UNL     1       9.274  -1.025   0.000  0.00  0.00    +0.002 C 
BRANCH  14  15
ATOM     15  C   UNL     1       7.774  -1.025   0.000  0.00  0.00    +0.028 C 
BRANCH  15  16
ATOM     16  C   UNL     1       7.024   0.275   0.000  0.00  0.00    +0.160 C 
BRANCH  16  17
ATOM     17  O   UNL     1       5.524   0.275   0.000  0.00  0.00    -0.377 OA
BRANCH  17  18
ATOM     18  C   UNL     1       4.774   1.574   0.000  0.00  0.00    +0.193 C 
BRANCH  18  19
ATOM     19  C   UNL     1       3.275   1.574   0.000  0.00  0.00    +0.165 C 
BRANCH  19  23
ATOM     23  O   UNL     1       2.525   2.873   0.000  0.00  0.00    -0.387 OA
ATOM     24  H   UNL     1       3.009   3.713   0.000  0.00  0.00    +0.210 HD
ENDBRANCH  19  23
BRANCH  19  20
ATOM     20  C   UNL     1       2.525   0.275   0.000  0.00  0.00    +0.189 C 
BRANCH  20  21
ATOM     21  O   UNL     1       1.025   0.275   0.000  0.00  0.00    -0.392 OA
ATOM     22  H   UNL     1       0.539   1.115   0.000  0.00  0.00    +0.210 HD
ENDBRANCH  20  21
ENDBRANCH  19  20
ENDBRANCH  18  19
ENDBRANCH  17  18
ENDBRANCH  16  17
ENDBRANCH  15  16
ENDBRANCH  14  15
ENDBRANCH  13  14
ENDBRANCH  12  13
TORSDOF 20