REMARK  Name = 72961
REMARK  5 active torsions:
REMARK  status: ('A' for Active; 'I' for Inactive)
REMARK    1  A    between atoms: N_5  and  C1*_11
REMARK    2  A    between atoms: C2*_12  and  O2*_19
REMARK    3  A    between atoms: C3*_13  and  O3*_18
REMARK    4  A    between atoms: C4*_14  and  C5*_17
REMARK    5  A    between atoms: O5*_16  and  C5*_17
REMARK                            x       y       z     vdW  Elec       q    Type
REMARK                         _______ _______ _______ _____ _____    ______ ____
ROOT
ATOM      1  N   UNL     1       2.324  -1.025   0.000  0.00  0.00    -0.219 NA
ATOM      2  C   UNL     1       2.324  -2.525   0.000  0.00  0.00    +0.225 A 
ATOM      3  N   UNL     1       3.623  -3.275   0.000  0.00  0.00    -0.214 NA
ATOM      4  C   UNL     1       4.922  -2.525   0.000  0.00  0.00    +0.186 A 
ATOM      5  C   UNL     1       4.922  -1.025   0.000  0.00  0.00    +0.171 A 
ATOM      6  N   UNL     1       6.348  -0.561   0.000  0.00  0.00    -0.124 NA
ATOM      7  N   UNL     1       7.230  -1.775   0.000  0.00  0.00    -0.061 NA
ATOM      8  N   UNL     1       6.348  -2.988   0.000  0.00  0.00    -0.195 N 
ATOM     21  C   UNL     1       3.623  -0.275   0.000  0.00  0.00    +0.149 A 
ATOM     22  N   UNL     1       3.623   1.226   0.000  0.00  0.00    -0.341 N 
ATOM     23  H   UNL     1       2.770   1.718   0.000  0.00  0.00    +0.144 HD
ATOM     24  H   UNL     1       4.475   1.718   0.000  0.00  0.00    +0.144 HD
ENDROOT
BRANCH   8   9
ATOM      9  C1* UNL     1       6.812  -4.415   0.000  0.00  0.00    +0.272 C 
ATOM     10  C2* UNL     1       8.238  -4.878   0.000  0.00  0.00    +0.197 C 
ATOM     13  C3* UNL     1       8.238  -6.378   0.000  0.00  0.00    +0.178 C 
ATOM     16  C4* UNL     1       6.812  -6.842   0.000  0.00  0.00    +0.177 C 
ATOM     20  O4* UNL     1       5.930  -5.628   0.000  0.00  0.00    -0.344 OA
BRANCH  10  11
ATOM     11  O2* UNL     1       9.452  -3.997   0.000  0.00  0.00    -0.385 OA
ATOM     12  H2* UNL     1      10.338  -4.391   0.000  0.00  0.00    +0.210 HD
ENDBRANCH  10  11
BRANCH  13  14
ATOM     14  O3* UNL     1       9.452  -7.260   0.000  0.00  0.00    -0.386 OA
ATOM     15  H3* UNL     1       9.351  -8.224   0.000  0.00  0.00    +0.210 HD
ENDBRANCH  13  14
BRANCH  16  17
ATOM     17  C5* UNL     1       6.348  -8.268   0.000  0.00  0.00    +0.190 C 
BRANCH  17  18
ATOM     18  O5* UNL     1       7.352  -9.383   0.000  0.00  0.00    -0.392 OA
ATOM     19  H5* UNL     1       7.052 -10.306   0.000  0.00  0.00    +0.210 HD
ENDBRANCH  17  18
ENDBRANCH  16  17
ENDBRANCH   8   9
TORSDOF 5