REMARK  Name = 646189
REMARK  10 active torsions:
REMARK  status: ('A' for Active; 'I' for Inactive)
REMARK    1  A    between atoms: C_1  and  O_8
REMARK    2  A    between atoms: C_5  and  C_6
REMARK    3  A    between atoms: O_8  and  C_9
REMARK    4  A    between atoms: C_9  and  O_10
REMARK    5  A    between atoms: C_9  and  C_13
REMARK    6  A    between atoms: O_10  and  C_11
REMARK    7  A    between atoms: C_11  and  C_12
REMARK    8  A    between atoms: C_13  and  C_14
REMARK    9  A    between atoms: C_13  and  SE_15
REMARK   10  A    between atoms: SE_15  and  C_16
REMARK                            x       y       z     vdW  Elec       q    Type
REMARK                         _______ _______ _______ _____ _____    ______ ____
ROOT
ATOM      3  C   UNL     1      -1.477   0.871   0.000  0.00  0.00    +0.000 C 
ENDROOT
BRANCH   3   4
ATOM      4  C   UNL     1       0.023   0.834   0.000  0.00  0.00    +0.000 C 
ATOM     12  C   UNL     1       0.741  -0.483   0.000  0.00  0.00    +0.000 C 
BRANCH   4   5
ATOM      5 SE   UNL     1       0.805   2.115   0.000  0.00  0.00    +0.000 Se
BRANCH   5   6
ATOM      6  C   UNL     1       2.304   2.078   0.000  0.00  0.00    +0.000 A 
ATOM      7  C   UNL     1       3.086   3.358   0.000  0.00  0.00    +0.000 A 
ATOM      8  C   UNL     1       4.585   3.321   0.000  0.00  0.00    +0.000 A 
ATOM      9  C   UNL     1       5.303   2.004   0.000  0.00  0.00    +0.000 A 
ATOM     10  C   UNL     1       4.521   0.723   0.000  0.00  0.00    +0.000 A 
ATOM     11  C   UNL     1       3.022   0.760   0.000  0.00  0.00    +0.000 A 
ENDBRANCH   5   6
ENDBRANCH   4   5
ENDBRANCH   3   4
BRANCH   3   2
ATOM      2  O   UNL     1      -2.259  -0.409   0.000  0.00  0.00    +0.000 OA
BRANCH   2   1
ATOM      1  C   UNL     1      -1.323  -1.581   0.000  0.00  0.00    +0.000 C 
ATOM     16  C   UNL     1      -1.722  -3.027   0.000  0.00  0.00    +0.000 C 
ATOM     19  C   UNL     1      -0.469  -3.853   0.000  0.00  0.00    +0.000 C 
ATOM     20  C   UNL     1       0.703  -2.918   0.000  0.00  0.00    +0.000 C 
ATOM     21  C   UNL     1       0.176  -1.514   0.000  0.00  0.00    +0.000 C 
BRANCH  16  17
ATOM     17  C   UNL     1      -3.126  -3.555   0.000  0.00  0.00    +0.000 C 
ATOM     18  N   UNL     1      -4.530  -4.082   0.000  0.00  0.00    +0.000 NA
ENDBRANCH  16  17
ENDBRANCH   2   1
ENDBRANCH   3   2
BRANCH   3  13
ATOM     13  O   UNL     1      -2.195   2.188   0.000  0.00  0.00    +0.000 OA
BRANCH  13  14
ATOM     14  C   UNL     1      -3.694   2.225   0.000  0.00  0.00    +0.000 C 
ATOM     15  C   UNL     1      -4.476   0.945   0.000  0.00  0.00    +0.000 C 
ENDBRANCH  13  14
ENDBRANCH   3  13
TORSDOF 8