REMARK  Name = 654259
REMARK  8 active torsions:
REMARK  status: ('A' for Active; 'I' for Inactive)
REMARK    1  A    between atoms: C_3  and  C_7
REMARK    2  A    between atoms: C_4  and  N_21
REMARK    3  A    between atoms: N_12  and  C_13
REMARK    4  A    between atoms: C_16  and  O_19
REMARK    5  A    between atoms: C_17  and  C_26
REMARK    6  A    between atoms: O_19  and  C_27
REMARK    7  A    between atoms: C_22  and  C_24
REMARK    8  A    between atoms: C_24  and  N_25
REMARK                            x       y       z     vdW  Elec       q    Type
REMARK                         _______ _______ _______ _____ _____    ______ ____
ROOT
ATOM      1 CL   UNL     1       9.000  10.044   0.000  0.00  0.00    -0.145 Cl
ATOM      2  H   UNL     1      10.330  10.044   0.000  0.00  0.00    +0.145 HD
ENDROOT
TORSDOF 0