REMARK  Name = 61811
REMARK  5 active torsions:
REMARK  status: ('A' for Active; 'I' for Inactive)
REMARK    1  A    between atoms: C_8  and  C_27
REMARK    2  A    between atoms: C_19  and  O_22
REMARK    3  A    between atoms: O_22  and  C_23
REMARK    4  A    between atoms: C_24  and  C_26
REMARK    5  A    between atoms: C_27  and  C_28
REMARK                            x       y       z     vdW  Elec       q    Type
REMARK                         _______ _______ _______ _____ _____    ______ ____
ROOT
ATOM      1  N   UNL     1       2.463   5.141   0.000  0.00  0.00    -0.264 N 
ATOM      2  C   UNL     1       2.000   3.715   0.000  0.00  0.00    +0.217 C 
ATOM      3  C   UNL     1       3.004   2.600   0.000  0.00  0.00    +0.109 C 
ATOM      4  O   UNL     1       0.533   3.403   0.000  0.00  0.00    -0.276 OA
ATOM      5  C   UNL     1       1.582   6.355   0.000  0.00  0.00    +0.082 A 
ATOM      6  C   UNL     1       0.090   6.512   0.000  0.00  0.00    +0.142 A 
ATOM      9  C   UNL     1      -0.520   7.882   0.000  0.00  0.00    +0.047 A 
ATOM     10  C   UNL     1       0.362   9.096   0.000  0.00  0.00    +0.004 A 
ATOM     11  C   UNL     1       1.853   8.939   0.000  0.00  0.00    +0.006 A 
ATOM     12  C   UNL     1       2.463   7.569   0.000  0.00  0.00    -0.013 A 
ATOM     13  C   UNL     1       3.890   7.105   0.000  0.00  0.00    +0.034 C 
ATOM     14  C   UNL     1       2.829   8.166   0.000  0.00  0.00    +0.030 C 
ATOM     15  C   UNL     1       3.579   9.465   0.000  0.00  0.00    +0.086 C 
ATOM     16  N   UNL     1       5.189   9.355   0.000  0.00  0.00    -0.298 NA
ATOM     17  C   UNL     1       6.488  10.105   0.000  0.00  0.00    +0.085 C 
ATOM     18  C   UNL     1       7.787   9.355   0.000  0.00  0.00    +0.016 C 
ATOM     19  C   UNL     1       7.787   7.855   0.000  0.00  0.00    +0.010 C 
ATOM     20  C   UNL     1       6.488   7.105   0.000  0.00  0.00    -0.013 C 
ATOM     23  C   UNL     1       6.488   5.605   0.000  0.00  0.00    +0.010 C 
ATOM     24  C   UNL     1       5.189   4.855   0.000  0.00  0.00    +0.024 C 
ATOM     25  C   UNL     1       5.189   7.855   0.000  0.00  0.00    +0.075 C 
ATOM     26  C   UNL     1       3.890   5.605   0.000  0.00  0.00    +0.094 C 
ENDROOT
BRANCH   6   7
ATOM      7  O   UNL     1      -0.792   5.298   0.000  0.00  0.00    -0.493 OA
ATOM      8  C   UNL     1      -2.284   5.455   0.000  0.00  0.00    +0.277 C 
ENDBRANCH   6   7
BRANCH  20  21
ATOM     21  C   UNL     1       7.787   6.355   0.000  0.00  0.00    +0.005 C 
ATOM     22  C   UNL     1       9.086   7.105   0.000  0.00  0.00    +0.004 C 
ENDBRANCH  20  21
TORSDOF 2