REMARK  Name = 641240
REMARK  10 active torsions:
REMARK  status: ('A' for Active; 'I' for Inactive)
REMARK    1  A    between atoms: C_11  and  N_13
REMARK    2  A    between atoms: N_13  and  C_14
REMARK    3  A    between atoms: C_15  and  C_20
REMARK    4  A    between atoms: C_20  and  C_22
REMARK    5  A    between atoms: C_22  and  C_23
REMARK    6  A    between atoms: C_23  and  C_25
REMARK    7  A    between atoms: N_27  and  C_28
REMARK    8  A    between atoms: C_33  and  C_34
REMARK    9  A    between atoms: C_34  and  O_36
REMARK   10  A    between atoms: O_36  and  C_37
REMARK                            x       y       z     vdW  Elec       q    Type
REMARK                         _______ _______ _______ _____ _____    ______ ____
ROOT
ATOM     10  C   UNL     1       5.946   3.000   0.000  0.00  0.00    +0.042 A 
ATOM     11  C   UNL     1       5.946   1.500   0.000  0.00  0.00    +0.024 A 
ATOM     12  C   UNL     1       7.245   0.750   0.000  0.00  0.00    +0.002 A 
ATOM     13  C   UNL     1       8.544   1.500   0.000  0.00  0.00    +0.001 A 
ATOM     14  C   UNL     1       8.544   3.000   0.000  0.00  0.00    +0.013 A 
ATOM     15  C   UNL     1       7.245   3.750   0.000  0.00  0.00    +0.039 A 
ENDROOT
BRANCH  10   8
ATOM      8  N   UNL     1       4.647   3.750   0.000  0.00  0.00    -0.313 N 
ATOM      9  H   UNL     1       4.647   4.734   0.000  0.00  0.00    +0.152 HD
BRANCH   8   7
ATOM      1  C   UNL     1      -0.549   3.750   0.000  0.00  0.00    +0.012 A 
ATOM      2  C   UNL     1       0.750   3.000   0.000  0.00  0.00    +0.034 A 
ATOM      3  C   UNL     1       0.750   1.500   0.000  0.00  0.00    +0.233 C 
ATOM      4  C   UNL     1       2.049   0.750   0.000  0.00  0.00    +0.228 C 
ATOM      5  O   UNL     1       2.049  -0.750   0.000  0.00  0.00    -0.284 OA
ATOM      6  C   UNL     1       3.348   1.500   0.000  0.00  0.00    +0.078 C 
ATOM      7  C   UNL     1       3.348   3.000   0.000  0.00  0.00    +0.043 C 
ATOM     35  O   UNL     1      -0.549   0.750   0.000  0.00  0.00    -0.283 OA
ATOM     36  C   UNL     1       2.049   3.750   0.000  0.00  0.00    +0.007 A 
ATOM     37  C   UNL     1       2.049   5.250   0.000  0.00  0.00    +0.010 A 
ATOM     38  C   UNL     1       0.750   6.000   0.000  0.00  0.00    +0.001 A 
ATOM     39  C   UNL     1      -0.549   5.250   0.000  0.00  0.00    +0.001 A 
ENDBRANCH   8   7
ENDBRANCH  10   8
BRANCH  15  16
ATOM     16  C   UNL     1       7.245   5.250   0.000  0.00  0.00    +0.173 C 
ATOM     34  O   UNL     1       5.946   6.000   0.000  0.00  0.00    -0.292 OA
BRANCH  16  17
ATOM     17  C   UNL     1       8.544   6.000   0.000  0.00  0.00    +0.164 C 
BRANCH  17  18
ATOM     18  C   UNL     1       9.843   5.250   0.000  0.00  0.00    +0.225 C 
ATOM     33  O   UNL     1       9.843   3.750   0.000  0.00  0.00    -0.287 OA
BRANCH  18  19
ATOM     19  C   UNL     1      11.142   6.000   0.000  0.00  0.00    +0.284 C 
ATOM     20  N   UNL     1      12.441   5.250   0.000  0.00  0.00    -0.278 N 
ATOM     21  H   UNL     1      12.441   4.266   0.000  0.00  0.00    +0.155 HD
ATOM     32  O   UNL     1      11.142   7.500   0.000  0.00  0.00    -0.267 OA
BRANCH  20  22
ATOM     22  C   UNL     1      13.740   6.000   0.000  0.00  0.00    +0.048 A 
ATOM     23  C   UNL     1      15.039   5.250   0.000  0.00  0.00    +0.080 A 
ATOM     28  C   UNL     1      16.339   6.000   0.000  0.00  0.00    +0.017 A 
ATOM     29  C   UNL     1      16.339   7.500   0.000  0.00  0.00    +0.001 A 
ATOM     30  C   UNL     1      15.039   8.250   0.000  0.00  0.00    +0.002 A 
ATOM     31  C   UNL     1      13.740   7.500   0.000  0.00  0.00    +0.024 A 
BRANCH  23  24
ATOM     24  C   UNL     1      15.039   3.750   0.000  0.00  0.00    +0.341 C 
ATOM     27  O   UNL     1      13.740   3.000   0.000  0.00  0.00    -0.245 OA
BRANCH  24  25
ATOM     25  O   UNL     1      16.339   3.000   0.000  0.00  0.00    -0.464 OA
ATOM     26  C   UNL     1      17.637   3.750   0.000  0.00  0.00    +0.280 C 
ENDBRANCH  24  25
ENDBRANCH  23  24
ENDBRANCH  20  22
ENDBRANCH  18  19
ENDBRANCH  17  18
ENDBRANCH  16  17
ENDBRANCH  15  16
TORSDOF 9