REMARK  Name = 637914
REMARK  7 active torsions:
REMARK  status: ('A' for Active; 'I' for Inactive)
REMARK    1  A    between atoms: C_1  and  C_7
REMARK    2  A    between atoms: C_4  and  N_10
REMARK    3  A    between atoms: N_10  and  C_11
REMARK    4  A    between atoms: N_10  and  S_15
REMARK    5  A    between atoms: C_11  and  C_12
REMARK    6  A    between atoms: C_12  and  C_13
REMARK    7  A    between atoms: S_15  and  C_18
REMARK                            x       y       z     vdW  Elec       q    Type
REMARK                         _______ _______ _______ _____ _____    ______ ____
ROOT
ATOM      7  N   UNL     1      -2.017   8.507   0.000  0.00  0.00    -0.202 N 
ENDROOT
BRANCH   7   6
ATOM      1  C   UNL     1      -2.017  13.007   0.000  0.00  0.00    +0.014 A 
ATOM      4  C   UNL     1      -0.718  12.257   0.000  0.00  0.00    +0.013 A 
ATOM      5  C   UNL     1      -0.718  10.757   0.000  0.00  0.00    +0.025 A 
ATOM      6  C   UNL     1      -2.017  10.007   0.000  0.00  0.00    +0.051 A 
ATOM     21  C   UNL     1      -3.316  10.757   0.000  0.00  0.00    +0.025 A 
ATOM     22  C   UNL     1      -3.316  12.257   0.000  0.00  0.00    +0.013 A 
BRANCH   1   2
ATOM      2  C   UNL     1      -2.017  14.507   0.000  0.00  0.00    +0.258 C 
ATOM      3  O   UNL     1      -3.316  15.257   0.000  0.00  0.00    -0.296 OA
ENDBRANCH   1   2
ENDBRANCH   7   6
BRANCH   7   8
ATOM      8  S   UNL     1      -3.316   7.757   0.000  0.00  0.00    +0.075 S 
ATOM     15  O   UNL     1      -2.566   6.458   0.000  0.00  0.00    -0.150 OA
ATOM     16  O   UNL     1      -4.066   9.056   0.000  0.00  0.00    -0.150 OA
BRANCH   8   9
ATOM      9  C   UNL     1      -4.615   7.007   0.000  0.00  0.00    +0.109 A 
ATOM     10  C   UNL     1      -4.615   5.507   0.000  0.00  0.00    +0.029 A 
ATOM     11  C   UNL     1      -5.914   4.757   0.000  0.00  0.00    +0.002 A 
ATOM     12  C   UNL     1      -7.213   5.507   0.000  0.00  0.00    +0.000 A 
ATOM     13  C   UNL     1      -7.213   7.007   0.000  0.00  0.00    +0.002 A 
ATOM     14  C   UNL     1      -5.914   7.757   0.000  0.00  0.00    +0.029 A 
ENDBRANCH   8   9
ENDBRANCH   7   8
BRANCH   7  17
ATOM     17  C   UNL     1      -0.718   7.757   0.000  0.00  0.00    +0.146 C 
BRANCH  17  18
ATOM     18  C   UNL     1       0.582   8.507   0.000  0.00  0.00    +0.139 C 
BRANCH  18  19
ATOM     19  C   UNL     1       1.881   7.757   0.000  0.00  0.00    +0.064 C 
ATOM     20  N   UNL     1       3.180   7.007   0.000  0.00  0.00    -0.197 NA
ENDBRANCH  18  19
ENDBRANCH  17  18
ENDBRANCH   7  17
TORSDOF 7