REMARK  Name = 640335
REMARK  9 active torsions:
REMARK  status: ('A' for Active; 'I' for Inactive)
REMARK    1  A    between atoms: C_3  and  N_9
REMARK    2  A    between atoms: C_12  and  C_15
REMARK    3  A    between atoms: C_13  and  C_16
REMARK    4  A    between atoms: C_16  and  C_18
REMARK    5  A    between atoms: N_17  and  N_29
REMARK    6  A    between atoms: C_19  and  C_20
REMARK    7  A    between atoms: N_29  and  C_30
REMARK    8  A    between atoms: C_33  and  N_39
REMARK    9  A    between atoms: C_35  and  N_36
REMARK                            x       y       z     vdW  Elec       q    Type
REMARK                         _______ _______ _______ _____ _____    ______ ____
ROOT
ATOM     13  C   UNL     1       8.918   7.636   0.000  0.00  0.00    +0.097 C 
ATOM     25  N   UNL     1      10.132   6.754   0.000  0.00  0.00    -0.181 NA
ENDROOT
BRANCH  13  12
ATOM      8  N   UNL     1       4.994   4.103   0.000  0.00  0.00    -0.294 N 
ATOM      9  H   UNL     1       5.487   3.250   0.000  0.00  0.00    +0.154 HD
ATOM     10  C   UNL     1       5.744   5.402   0.000  0.00  0.00    +0.163 A 
ATOM     11  S   UNL     1       7.236   5.558   0.000  0.00  0.00    -0.050 S 
ATOM     12  C   UNL     1       7.548   7.026   0.000  0.00  0.00    +0.063 A 
ATOM     40  C   UNL     1       6.249   7.776   0.000  0.00  0.00    +0.057 A 
ATOM     41  C   UNL     1       6.092   9.267   0.000  0.00  0.00    +0.067 C 
ATOM     42  N   UNL     1       5.134   6.772   0.000  0.00  0.00    -0.229 NA
BRANCH   8   7
ATOM      1  C   UNL     1       1.244   5.402   0.000  0.00  0.00    +0.061 A 
ATOM      2 CL   UNL     1       0.494   6.701   0.000  0.00  0.00    -0.082 Cl
ATOM      3  C   UNL     1       0.494   4.103   0.000  0.00  0.00    +0.059 A 
ATOM      4 CL   UNL     1      -1.006   4.103   0.000  0.00  0.00    -0.082 Cl
ATOM      5  C   UNL     1       1.244   2.803   0.000  0.00  0.00    +0.023 A 
ATOM      6  C   UNL     1       2.744   2.803   0.000  0.00  0.00    +0.025 A 
ATOM      7  C   UNL     1       3.494   4.103   0.000  0.00  0.00    +0.034 A 
ATOM     43  C   UNL     1       2.744   5.402   0.000  0.00  0.00    +0.044 A 
ENDBRANCH   8   7
ENDBRANCH  13  12
BRANCH  13  14
ATOM     14  C   UNL     1       9.075   9.127   0.000  0.00  0.00    +0.031 C 
ATOM     15  C   UNL     1       7.862  10.009   0.000  0.00  0.00    +0.010 C 
BRANCH  15  16
ATOM     16  C   UNL     1       8.018  11.501   0.000  0.00  0.00    -0.021 A 
ATOM     17  C   UNL     1       6.805  12.383   0.000  0.00  0.00    +0.012 A 
ATOM     18  C   UNL     1       6.962  13.874   0.000  0.00  0.00    +0.050 A 
ATOM     19  C   UNL     1       8.332  14.485   0.000  0.00  0.00    +0.166 A 
ATOM     20  O   UNL     1       8.796  15.911   0.000  0.00  0.00    -0.453 OA
ATOM     21  C   UNL     1      10.296  15.911   0.000  0.00  0.00    +0.466 C 
ATOM     22  O   UNL     1      10.759  14.484   0.000  0.00  0.00    -0.453 OA
ATOM     23  C   UNL     1       9.546  13.603   0.000  0.00  0.00    +0.167 A 
ATOM     24  C   UNL     1       9.389  12.111   0.000  0.00  0.00    +0.057 A 
ENDBRANCH  15  16
ENDBRANCH  13  14
BRANCH  25  26
ATOM     26  N   UNL     1      11.502   7.364   0.000  0.00  0.00    -0.231 N 
ATOM     27  H   UNL     1      11.605   8.343   0.000  0.00  0.00    +0.175 HD
BRANCH  26  28
ATOM     28  C   UNL     1      12.716   6.482   0.000  0.00  0.00    +0.126 A 
ATOM     29  C   UNL     1      14.086   7.093   0.000  0.00  0.00    +0.302 A 
ATOM     33  C   UNL     1      15.300   6.211   0.000  0.00  0.00    +0.170 A 
ATOM     34  C   UNL     1      15.143   4.719   0.000  0.00  0.00    +0.280 A 
ATOM     38  C   UNL     1      13.773   4.109   0.000  0.00  0.00    +0.086 A 
ATOM     39  C   UNL     1      12.559   4.991   0.000  0.00  0.00    +0.038 A 
BRANCH  29  30
ATOM     30  N   UNL     1      14.243   8.584   0.000  0.00  0.00    +0.082 N 
ATOM     31  O   UNL     1      15.613   9.194   0.000  0.00  0.00    +0.042 OA
ATOM     32  O   UNL     1      13.029   9.466   0.000  0.00  0.00    -0.576 OA
ENDBRANCH  29  30
BRANCH  34  35
ATOM     35  N   UNL     1      16.356   3.837   0.000  0.00  0.00    +0.080 N 
ATOM     36  O   UNL     1      17.727   4.447   0.000  0.00  0.00    +0.041 OA
ATOM     37  O   UNL     1      16.200   2.346   0.000  0.00  0.00    -0.576 OA
ENDBRANCH  34  35
ENDBRANCH  26  28
ENDBRANCH  25  26
TORSDOF 8