REMARK  Name = 636786
REMARK  5 active torsions:
REMARK  status: ('A' for Active; 'I' for Inactive)
REMARK    1  A    between atoms: C_1  and  O_14
REMARK    2  A    between atoms: C_5  and  C_15
REMARK    3  A    between atoms: C_11  and  C_12
REMARK    4  A    between atoms: C_12  and  C_16
REMARK    5  A    between atoms: C_18  and  O_22
REMARK                            x       y       z     vdW  Elec       q    Type
REMARK                         _______ _______ _______ _____ _____    ______ ____
ROOT
ATOM      1  C   UNL     1      -0.930  -1.709   0.000  0.00  0.00    +0.125 A 
ATOM      4  C   UNL     1       0.568  -1.629   0.000  0.00  0.00    +0.024 A 
ATOM     17  C   UNL     1       1.386  -2.886   0.000  0.00  0.00    -0.007 A 
ATOM     18  C   UNL     1       2.884  -2.807   0.000  0.00  0.00    +0.009 A 
ATOM     19  C   UNL     1       3.702  -4.064   0.000  0.00  0.00    +0.001 A 
ATOM     20  C   UNL     1       3.023  -5.401   0.000  0.00  0.00    +0.001 A 
ATOM     21  C   UNL     1       1.525  -5.481   0.000  0.00  0.00    +0.008 A 
ATOM     22  C   UNL     1       0.706  -4.224   0.000  0.00  0.00    -0.017 A 
ATOM     23  C   UNL     1      -0.791  -4.304   0.000  0.00  0.00    +0.012 A 
ATOM     24  C   UNL     1      -1.610  -3.047   0.000  0.00  0.00    +0.046 A 
ENDROOT
BRANCH   1   2
ATOM      2  O   UNL     1      -1.748  -0.452   0.000  0.00  0.00    -0.506 OA
ATOM      3  H   UNL     1      -1.324   0.383   0.000  0.00  0.00    +0.292 HD
ENDBRANCH   1   2
BRANCH   4   5
ATOM      5  C   UNL     1       1.248  -0.292   0.000  0.00  0.00    +0.016 C 
ATOM      6  C   UNL     1       0.660   1.088   0.000  0.00  0.00    +0.052 C 
BRANCH   6   7
ATOM      7  C   UNL     1       1.562   2.287   0.000  0.00  0.00    +0.186 C 
ATOM      8  O   UNL     1       0.974   3.667   0.000  0.00  0.00    -0.287 OA
BRANCH   7   9
ATOM      9  C   UNL     1       3.051   2.106   0.000  0.00  0.00    +0.025 A 
ATOM     10  C   UNL     1       3.952   3.304   0.000  0.00  0.00    +0.012 A 
ATOM     11  C   UNL     1       5.441   3.123   0.000  0.00  0.00    +0.004 A 
ATOM     12  C   UNL     1       6.029   1.743   0.000  0.00  0.00    +0.045 A 
ATOM     13  C   UNL     1       5.127   0.544   0.000  0.00  0.00    +0.118 A 
ATOM     16  C   UNL     1       3.638   0.725   0.000  0.00  0.00    +0.057 A 
BRANCH  13  14
ATOM     14  O   UNL     1       5.715  -0.836   0.000  0.00  0.00    -0.507 OA
ATOM     15  H   UNL     1       5.151  -1.585   0.000  0.00  0.00    +0.292 HD
ENDBRANCH  13  14
ENDBRANCH   7   9
ENDBRANCH   6   7
ENDBRANCH   4   5
TORSDOF 5