REMARK  Name = 682864
REMARK  2 active torsions:
REMARK  status: ('A' for Active; 'I' for Inactive)
REMARK    1  A    between atoms: C_7  and  C_14
REMARK    2  A    between atoms: C_9  and  N_22
REMARK                            x       y       z     vdW  Elec       q    Type
REMARK                         _______ _______ _______ _____ _____    ______ ____
ROOT
ATOM      1  C   UNL     1     -10.767   5.149   0.000  0.00  0.00    -0.038 A 
ATOM      2  C   UNL     1     -12.066   5.899   0.000  0.00  0.00    +0.004 A 
ATOM      3  C   UNL     1     -12.066   7.399   0.000  0.00  0.00    +0.000 A 
ATOM      4  C   UNL     1     -10.767   8.149   0.000  0.00  0.00    +0.001 A 
ATOM      5  C   UNL     1      -9.468   7.399   0.000  0.00  0.00    +0.010 A 
ATOM      6  C   UNL     1      -9.468   5.899   0.000  0.00  0.00    -0.001 A 
ATOM      7  C   UNL     1      -8.169   5.149   0.000  0.00  0.00    +0.042 C 
ATOM      8  N   UNL     1      -6.870   5.899   0.000  0.00  0.00    -0.310 N 
ATOM      9  H   UNL     1      -6.870   6.884   0.000  0.00  0.00    +0.149 HD
ATOM     10  C   UNL     1      -5.571   5.149   0.000  0.00  0.00    +0.260 C 
ATOM     14  N   UNL     1      -5.571   3.650   0.000  0.00  0.00    -0.246 NA
ATOM     15  C   UNL     1      -6.870   2.900   0.000  0.00  0.00    +0.074 C 
ATOM     23  C   UNL     1      -8.169   3.650   0.000  0.00  0.00    +0.000 C 
ATOM     24  C   UNL     1      -9.468   2.900   0.000  0.00  0.00    +0.044 C 
ATOM     25  C   UNL     1     -10.767   3.650   0.000  0.00  0.00    +0.040 C 
ENDROOT
BRANCH  15  16
ATOM     16  C   UNL     1      -6.870   1.400   0.000  0.00  0.00    +0.000 A 
ATOM     17  C   UNL     1      -5.571   0.649   0.000  0.00  0.00    +0.011 A 
ATOM     18  C   UNL     1      -5.571  -0.851   0.000  0.00  0.00    +0.020 A 
ATOM     19  C   UNL     1      -6.870  -1.601   0.000  0.00  0.00    +0.041 A 
ATOM     20 CL   UNL     1      -6.870  -3.100   0.000  0.00  0.00    -0.084 Cl
ATOM     21  C   UNL     1      -8.169  -0.851   0.000  0.00  0.00    +0.020 A 
ATOM     22  C   UNL     1      -8.169   0.649   0.000  0.00  0.00    +0.011 A 
ENDBRANCH  15  16
BRANCH  10  11
ATOM     11  N   UNL     1      -4.272   5.899   0.000  0.00  0.00    -0.294 NA
ATOM     12  H   UNL     1      -4.272   6.919   0.000  0.00  0.00    +0.122 HD
ATOM     13  H   UNL     1      -3.389   5.389   0.000  0.00  0.00    +0.122 HD
ENDBRANCH  10  11
TORSDOF 2