REMARK  Name = 640342
REMARK  20 active torsions:
REMARK  status: ('A' for Active; 'I' for Inactive)
REMARK    1  A    between atoms: C_1  and  C_2
REMARK    2  A    between atoms: C_4  and  N_8
REMARK    3  A    between atoms: C_5  and  N_11
REMARK    4  A    between atoms: C_14  and  C_18
REMARK    5  A    between atoms: C_15  and  C_17
REMARK    6  A    between atoms: C_18  and  C_20
REMARK    7  A    between atoms: N_19  and  N_66
REMARK    8  A    between atoms: C_21  and  C_22
REMARK    9  A    between atoms: C_25  and  C_28
REMARK   10  A    between atoms: C_29  and  C_30
REMARK   11  A    between atoms: C_30  and  C_55
REMARK   12  A    between atoms: C_34  and  C_35
REMARK   13  A    between atoms: N_36  and  N_56
REMARK   14  A    between atoms: N_41  and  C_69
REMARK   15  A    between atoms: N_43  and  C_44
REMARK   16  A    between atoms: C_45  and  N_50
REMARK   17  A    between atoms: C_47  and  C_53
REMARK   18  A    between atoms: N_61  and  C_65
REMARK   19  A    between atoms: C_63  and  C_65
REMARK   20  A    between atoms: C_67  and  C_69
REMARK                            x       y       z     vdW  Elec       q    Type
REMARK                         _______ _______ _______ _____ _____    ______ ____
ROOT
ATOM      1 CL   UNL     1      20.051  -3.604   0.000  0.00  0.00    +0.000 Cl
ENDROOT
TORSDOF 0