REMARK  Name = 95848
REMARK  6 active torsions:
REMARK  status: ('A' for Active; 'I' for Inactive)
REMARK    1  A    between atoms: C_3  and  C_4
REMARK    2  A    between atoms: C_3  and  O_20
REMARK    3  A    between atoms: C_9  and  O_18
REMARK    4  A    between atoms: C_9  and  O_22
REMARK    5  A    between atoms: O_18  and  C_19
REMARK    6  A    between atoms: O_20  and  C_21
REMARK                            x       y       z     vdW  Elec       q    Type
REMARK                         _______ _______ _______ _____ _____    ______ ____
ROOT
ATOM      1  O   UNL     1      -6.481  -1.670   0.000  0.00  0.00    -0.450 OA
ATOM      2  C   UNL     1      -7.780  -2.420   0.000  0.00  0.00    +0.135 A 
ATOM      3  C   UNL     1      -9.079  -1.670   0.000  0.00  0.00    +0.046 A 
ATOM      4  C   UNL     1     -10.378  -2.420   0.000  0.00  0.00    +0.004 A 
ATOM      5  C   UNL     1     -10.378  -3.920   0.000  0.00  0.00    +0.001 A 
ATOM      6  C   UNL     1      -9.079  -4.670   0.000  0.00  0.00    +0.015 A 
ATOM      7  C   UNL     1      -7.780  -3.920   0.000  0.00  0.00    +0.065 A 
ATOM      8  C   UNL     1      -6.481  -4.670   0.000  0.00  0.00    +0.232 C 
ATOM      9  C   UNL     1      -5.182  -3.920   0.000  0.00  0.00    +0.305 C 
ATOM     14  O   UNL     1      -6.481  -6.170   0.000  0.00  0.00    -0.286 OA
ATOM     15  C   UNL     1      -5.182  -2.420   0.000  0.00  0.00    +0.302 C 
ENDROOT
BRANCH  15  18
ATOM     18  C   UNL     1      -2.744  -2.850   0.000  0.00  0.00    +0.029 A 
ATOM     19  C   UNL     1      -1.780  -1.701   0.000  0.00  0.00    +0.010 A 
ATOM     20  C   UNL     1      -0.303  -1.961   0.000  0.00  0.00    +0.000 A 
ATOM     21  C   UNL     1       0.210  -3.371   0.000  0.00  0.00    +0.000 A 
ATOM     22  C   UNL     1      -0.754  -4.520   0.000  0.00  0.00    +0.000 A 
ATOM     23  C   UNL     1      -2.231  -4.259   0.000  0.00  0.00    +0.010 A 
ENDBRANCH  15  18
BRANCH   9  10
ATOM     10  O   UNL     1      -3.704  -3.660   0.000  0.00  0.00    -0.354 OA
ATOM     11  H   UNL     1      -3.081  -4.403   0.000  0.00  0.00    +0.213 HD
ENDBRANCH   9  10
BRANCH   9  12
ATOM     12  O   UNL     1      -4.669  -5.330   0.000  0.00  0.00    -0.341 OA
ATOM     13  C   UNL     1      -3.191  -5.590   0.000  0.00  0.00    +0.198 C 
ENDBRANCH   9  12
BRANCH  15  16
ATOM     16  O   UNL     1      -4.669  -1.011   0.000  0.00  0.00    -0.335 OA
ATOM     17  C   UNL     1      -3.191  -0.750   0.000  0.00  0.00    +0.199 C 
ENDBRANCH  15  16
TORSDOF 4