REMARK  Name = 70422
REMARK  5 active torsions:
REMARK  status: ('A' for Active; 'I' for Inactive)
REMARK    1  A    between atoms: C4*_1  and  C5*_17
REMARK    2  A    between atoms: C3*_2  and  O3*_16
REMARK    3  A    between atoms: C2*_3  and  O2*_18
REMARK    4  A    between atoms: C1*_5  and  N9_6
REMARK    5  A    between atoms: O5*_15  and  C5*_17
REMARK                            x       y       z     vdW  Elec       q    Type
REMARK                         _______ _______ _______ _____ _____    ______ ____
ROOT
ATOM      1  C4*   A A   1      -2.210   2.273   0.000  0.00  0.00    +0.177 C 
ATOM      5  C3*   A A   1      -3.227   1.171   0.000  0.00  0.00    +0.178 C 
ATOM      8  C2*   A A   1      -2.494  -0.138   0.000  0.00  0.00    +0.195 C 
ATOM     11  C1*   A A   1      -1.023   0.156   0.000  0.00  0.00    +0.253 C 
ATOM     24  O4*   A A   1      -0.847   1.645   0.000  0.00  0.00    -0.346 OA
ENDROOT
BRANCH  11  12
ATOM     12  N9    A A   1       0.079  -0.862   0.000  0.00  0.00    -0.286 N 
ATOM     13  C8    A A   1      -0.097  -2.352   0.000  0.00  0.00    +0.203 A 
ATOM     14  N7    A A   1       1.266  -2.979   0.000  0.00  0.00    -0.231 NA
ATOM     15  C5    A A   1       2.284  -1.877   0.000  0.00  0.00    +0.147 A 
ATOM     16  C6    A A   1       3.784  -1.896   0.000  0.00  0.00    +0.147 A 
ATOM     17  N6    A A   1       4.517  -3.204   0.000  0.00  0.00    -0.341 N 
ATOM     18  H61   A A   1       5.502  -3.217   0.000  0.00  0.00    +0.144 HD
ATOM     19  H62   A A   1       4.014  -4.051   0.000  0.00  0.00    +0.144 HD
ATOM     20  N1    A A   1       4.550  -0.607   0.000  0.00  0.00    -0.219 NA
ATOM     21  C2    A A   1       3.816   0.702   0.000  0.00  0.00    +0.225 A 
ATOM     22  N3    A A   1       2.317   0.721   0.000  0.00  0.00    -0.216 NA
ATOM     23  C4    A A   1       1.550  -0.569   0.000  0.00  0.00    +0.167 A 
ENDBRANCH  11  12
BRANCH   5   6
ATOM      6  O3*   A A   1      -4.717   1.346   0.000  0.00  0.00    -0.386 OA
ATOM      7  H3*   A A   1      -5.100   2.237   0.000  0.00  0.00    +0.210 HD
ENDBRANCH   5   6
BRANCH   8   9
ATOM      9  O2*   A A   1      -3.121  -1.500   0.000  0.00  0.00    -0.385 OA
ATOM     10  H2*   A A   1      -4.087  -1.589   0.000  0.00  0.00    +0.210 HD
ENDBRANCH   8   9
BRANCH   1   2
ATOM      2  C5*   A A   1      -2.503   3.744   0.000  0.00  0.00    +0.190 C 
BRANCH   2   3
ATOM      3  O5*   A A   1      -3.924   4.225   0.000  0.00  0.00    -0.392 OA
ATOM      4  H5*   A A   1      -4.113   5.177   0.000  0.00  0.00    +0.210 HD
ENDBRANCH   2   3
ENDBRANCH   1   2
TORSDOF 5