REMARK  Name = 600305
REMARK  9 active torsions:
REMARK  status: ('A' for Active; 'I' for Inactive)
REMARK    1  A    between atoms: C_2  and  C_15
REMARK    2  A    between atoms: C_11  and  C_19
REMARK    3  A    between atoms: C_15  and  C_16
REMARK    4  A    between atoms: C_15  and  C_17
REMARK    5  A    between atoms: N_21  and  C_22
REMARK    6  A    between atoms: C_22  and  C_23
REMARK    7  A    between atoms: C_23  and  N_24
REMARK    8  A    between atoms: N_24  and  C_25
REMARK    9  A    between atoms: N_24  and  C_26
REMARK                            x       y       z     vdW  Elec       q    Type
REMARK                         _______ _______ _______ _____ _____    ______ ____
ROOT
ATOM      1  C   UNL     1       4.647   3.750   0.000  0.00  0.00    +0.019 A 
ATOM      2  C   UNL     1       5.946   3.000   0.000  0.00  0.00    +0.066 A 
ATOM      3  C   UNL     1       7.245   3.750   0.000  0.00  0.00    +0.266 A 
ATOM      4  O   UNL     1       7.245   5.250   0.000  0.00  0.00    -0.267 OA
ATOM      5  N   UNL     1       8.544   3.000   0.000  0.00  0.00    -0.267 N 
ATOM      6  C   UNL     1       9.843   3.750   0.000  0.00  0.00    +0.109 A 
ATOM      7  C   UNL     1      11.142   3.000   0.000  0.00  0.00    +0.053 A 
ATOM     17  C   UNL     1      11.142   1.500   0.000  0.00  0.00    +0.018 A 
ATOM     18  C   UNL     1       9.843   0.750   0.000  0.00  0.00    +0.047 A 
ATOM     19  C   UNL     1       8.544   1.500   0.000  0.00  0.00    +0.141 A 
ATOM     20  N   UNL     1       7.245   0.750   0.000  0.00  0.00    -0.229 NA
ATOM     21  C   UNL     1       5.946   1.500   0.000  0.00  0.00    +0.079 A 
ATOM     22  C   UNL     1       4.647   0.750   0.000  0.00  0.00    +0.029 A 
ATOM     23  C   UNL     1       3.348   1.500   0.000  0.00  0.00    +0.006 A 
ATOM     24  C   UNL     1       3.348   3.000   0.000  0.00  0.00    -0.044 A 
ENDROOT
BRANCH   7   8
ATOM      8  C   UNL     1      12.441   3.750   0.000  0.00  0.00    +0.246 C 
ATOM      9  N   UNL     1      13.740   3.000   0.000  0.00  0.00    -0.310 N 
ATOM     10  H   UNL     1      13.826   2.019   0.000  0.00  0.00    +0.149 HD
ATOM     16  O   UNL     1      12.441   5.250   0.000  0.00  0.00    -0.270 OA
BRANCH   9  11
ATOM     11  C   UNL     1      14.890   3.964   0.000  0.00  0.00    +0.120 C 
BRANCH  11  12
ATOM     12  C   UNL     1      16.299   3.451   0.000  0.00  0.00    +0.102 C 
BRANCH  12  13
ATOM     13  N   UNL     1      16.560   1.974   0.000  0.00  0.00    -0.307 NA
ATOM     14  C   UNL     1      17.969   1.461   0.000  0.00  0.00    +0.104 C 
ATOM     15  C   UNL     1      15.410   1.010   0.000  0.00  0.00    +0.104 C 
ENDBRANCH  12  13
ENDBRANCH  11  12
ENDBRANCH   9  11
ENDBRANCH   7   8
BRANCH  24  25
ATOM     25  C   UNL     1       2.049   3.750   0.000  0.00  0.00    +0.013 C 
ATOM     26  C   UNL     1       0.750   3.000   0.000  0.00  0.00    +0.012 C 
ATOM     27  C   UNL     1       2.049   5.250   0.000  0.00  0.00    +0.012 C 
ENDBRANCH  24  25
TORSDOF 5