REMARK  Name = 65381
REMARK  2 active torsions:
REMARK  status: ('A' for Active; 'I' for Inactive)
REMARK    1  A    between atoms: C_1  and  C_3
REMARK    2  A    between atoms: C_4  and  C_6
REMARK                            x       y       z     vdW  Elec       q    Type
REMARK                         _______ _______ _______ _____ _____    ______ ____
ROOT
ATOM      6  C   UNL     1       3.000   2.049   0.000  0.00  0.00    +0.001 C 
ATOM      7  C   UNL     1       4.500   2.049   0.000  0.00  0.00    +0.001 C 
ENDROOT
BRANCH   6   1
ATOM      1  C   UNL     1       1.500   2.049   0.000  0.00  0.00    +0.286 C 
ATOM      2  N   UNL     1       0.750   0.750   0.000  0.00  0.00    -0.319 N 
ATOM      3  H   UNL     1       1.242  -0.103   0.000  0.00  0.00    +0.146 HD
ATOM      4  H   UNL     1      -0.234   0.750   0.000  0.00  0.00    +0.146 HD
ATOM      5  O   UNL     1       0.750   3.348   0.000  0.00  0.00    -0.261 OA
ENDBRANCH   6   1
BRANCH   7   8
ATOM      8  C   UNL     1       6.000   2.049   0.000  0.00  0.00    +0.286 C 
ATOM      9  N   UNL     1       6.750   0.750   0.000  0.00  0.00    -0.319 N 
ATOM     10  H   UNL     1       7.734   0.750   0.000  0.00  0.00    +0.146 HD
ATOM     11  H   UNL     1       6.258  -0.103   0.000  0.00  0.00    +0.146 HD
ATOM     12  O   UNL     1       6.750   3.348   0.000  0.00  0.00    -0.261 OA
ENDBRANCH   7   8
TORSDOF 2