REMARK  Name = 622616
REMARK  9 active torsions:
REMARK  status: ('A' for Active; 'I' for Inactive)
REMARK    1  A    between atoms: C_2  and  O_3
REMARK    2  A    between atoms: C_5  and  O_6
REMARK    3  A    between atoms: C_12  and  C_15
REMARK    4  A    between atoms: C_13  and  C_14
REMARK    5  A    between atoms: C_15  and  C_16
REMARK    6  A    between atoms: C_16  and  C_17
REMARK    7  A    between atoms: C_17  and  O_19
REMARK    8  A    between atoms: O_19  and  C_20
REMARK    9  A    between atoms: C_20  and  C_21
REMARK                            x       y       z     vdW  Elec       q    Type
REMARK                         _______ _______ _______ _____ _____    ______ ____
ROOT
ATOM      1  C   UNL     1     -12.441  -0.750   0.000  0.00  0.00    +0.092 A 
ATOM      2  C   UNL     1     -11.142  -1.500   0.000  0.00  0.00    +0.146 A 
ATOM      3  O   UNL     1      -9.843  -0.750   0.000  0.00  0.00    -0.422 OA
ATOM      4  C   UNL     1      -8.544  -1.500   0.000  0.00  0.00    +0.341 A 
ATOM      5  C   UNL     1      -8.544  -3.000   0.000  0.00  0.00    +0.041 A 
ATOM     13  C   UNL     1      -9.843  -3.750   0.000  0.00  0.00    -0.026 A 
ATOM     14  C   UNL     1      -9.843  -5.250   0.000  0.00  0.00    +0.045 C 
ATOM     15  O   UNL     1      -7.245  -0.750   0.000  0.00  0.00    -0.245 OA
ATOM     16  C   UNL     1     -11.142  -3.000   0.000  0.00  0.00    +0.062 A 
ATOM     17  C   UNL     1     -12.441  -3.750   0.000  0.00  0.00    +0.131 A 
ATOM     20  C   UNL     1     -13.740  -3.000   0.000  0.00  0.00    +0.091 A 
ATOM     21  C   UNL     1     -13.740  -1.500   0.000  0.00  0.00    +0.124 A 
ENDROOT
BRANCH  17  18
ATOM     18  O   UNL     1     -12.441  -5.250   0.000  0.00  0.00    -0.506 OA
ATOM     19  H   UNL     1     -13.253  -5.718   0.000  0.00  0.00    +0.292 HD
ENDBRANCH  17  18
BRANCH  21  22
ATOM     22  O   UNL     1     -15.039  -0.750   0.000  0.00  0.00    -0.507 OA
ATOM     23  H   UNL     1     -15.039   0.187   0.000  0.00  0.00    +0.292 HD
ENDBRANCH  21  22
BRANCH   5   6
ATOM      6  C   UNL     1      -7.245  -3.750   0.000  0.00  0.00    +0.054 C 
BRANCH   6   7
ATOM      7  C   UNL     1      -5.946  -3.000   0.000  0.00  0.00    +0.125 C 
BRANCH   7   8
ATOM      8  C   UNL     1      -4.647  -3.750   0.000  0.00  0.00    +0.307 C 
ATOM     12  O   UNL     1      -4.647  -5.250   0.000  0.00  0.00    -0.251 OA
BRANCH   8   9
ATOM      9  O   UNL     1      -3.348  -3.000   0.000  0.00  0.00    -0.465 OA
BRANCH   9  10
ATOM     10  C   UNL     1      -2.049  -3.750   0.000  0.00  0.00    +0.229 C 
ATOM     11  C   UNL     1      -0.750  -3.000   0.000  0.00  0.00    +0.048 C 
ENDBRANCH   9  10
ENDBRANCH   8   9
ENDBRANCH   7   8
ENDBRANCH   6   7
ENDBRANCH   5   6
TORSDOF 7