REMARK  Name = 85561
REMARK  7 active torsions:
REMARK  status: ('A' for Active; 'I' for Inactive)
REMARK    1  A    between atoms: N_1  and  C_10
REMARK    2  A    between atoms: N_2  and  C_13
REMARK    3  A    between atoms: C_12  and  O_26
REMARK    4  A    between atoms: C_14  and  O_27
REMARK    5  A    between atoms: C_21  and  S_29
REMARK    6  A    between atoms: C_22  and  N_23
REMARK    7  A    between atoms: S_29  and  O_32
REMARK                            x       y       z     vdW  Elec       q    Type
REMARK                         _______ _______ _______ _____ _____    ______ ____
ROOT
ATOM      1 NA   UNL     1      -3.824  10.868   0.000  0.00  0.00    +0.000 Na
ENDROOT
TORSDOF 0