REMARK  Name = 635441
REMARK  6 active torsions:
REMARK  status: ('A' for Active; 'I' for Inactive)
REMARK    1  A    between atoms: C_1  and  O_7
REMARK    2  A    between atoms: C_2  and  C_8
REMARK    3  A    between atoms: N_10  and  N_11
REMARK    4  A    between atoms: C_12  and  C_13
REMARK    5  A    between atoms: C_12  and  C_14
REMARK    6  A    between atoms: C_14  and  C_16
REMARK                            x       y       z     vdW  Elec       q    Type
REMARK                         _______ _______ _______ _____ _____    ______ ____
ROOT
ATOM      9  C   UNL     1      -6.221  -0.275   0.000  0.00  0.00    +0.267 C 
ATOM     10  N   UNL     1      -7.520  -1.025   0.000  0.00  0.00    -0.203 N 
ATOM     11  H   UNL     1      -7.520  -2.009   0.000  0.00  0.00    +0.178 HD
ATOM     18  O   UNL     1      -6.221   1.226   0.000  0.00  0.00    -0.268 OA
ENDROOT
BRANCH   9   8
ATOM      1  C   UNL     1      -3.623  -0.275   0.000  0.00  0.00    +0.129 A 
ATOM      4  C   UNL     1      -2.324  -1.025   0.000  0.00  0.00    +0.046 A 
ATOM      5  C   UNL     1      -2.324  -2.525   0.000  0.00  0.00    +0.004 A 
ATOM      6  C   UNL     1      -3.623  -3.275   0.000  0.00  0.00    +0.001 A 
ATOM      7  C   UNL     1      -4.922  -2.525   0.000  0.00  0.00    +0.017 A 
ATOM      8  C   UNL     1      -4.922  -1.025   0.000  0.00  0.00    +0.080 A 
BRANCH   1   2
ATOM      2  O   UNL     1      -3.623   1.226   0.000  0.00  0.00    -0.506 OA
ATOM      3  H   UNL     1      -2.811   1.694   0.000  0.00  0.00    +0.292 HD
ENDBRANCH   1   2
ENDBRANCH   9   8
BRANCH  10  12
ATOM     12  N   UNL     1      -8.819  -0.275   0.000  0.00  0.00    -0.181 NA
ATOM     13  C   UNL     1      -8.819   1.226   0.000  0.00  0.00    +0.098 C 
ATOM     17  C   UNL     1      -7.520   1.976   0.000  0.00  0.00    +0.071 C 
BRANCH  13  14
ATOM     14  C   UNL     1     -10.118   1.976   0.000  0.00  0.00    +0.175 C 
ATOM     15  C   UNL     1     -11.417   1.226   0.000  0.00  0.00    +0.093 C 
ATOM     16  O   UNL     1     -10.118   3.475   0.000  0.00  0.00    -0.291 OA
ENDBRANCH  13  14
ENDBRANCH  10  12
TORSDOF 4