REMARK  Name = 617540
REMARK  19 active torsions:
REMARK  status: ('A' for Active; 'I' for Inactive)
REMARK    1  A    between atoms: C_1  and  O_26
REMARK    2  A    between atoms: C_2  and  O_27
REMARK    3  A    between atoms: C_6  and  C_7
REMARK    4  A    between atoms: C_7  and  C_8
REMARK    5  A    between atoms: C_8  and  C_9
REMARK    6  A    between atoms: C_9  and  C_10
REMARK    7  A    between atoms: C_10  and  C_11
REMARK    8  A    between atoms: C_11  and  C_12
REMARK    9  A    between atoms: C_12  and  C_13
REMARK   10  A    between atoms: C_13  and  C_14
REMARK   11  A    between atoms: C_14  and  C_15
REMARK   12  A    between atoms: C_15  and  C_16
REMARK   13  A    between atoms: C_17  and  C_18
REMARK   14  A    between atoms: C_18  and  C_19
REMARK   15  A    between atoms: C_19  and  C_22
REMARK   16  A    between atoms: C_22  and  C_23
REMARK   17  A    between atoms: C_23  and  C_24
REMARK   18  A    between atoms: C_24  and  C_25
REMARK   19  A    between atoms: O_27  and  C_28
REMARK                            x       y       z     vdW  Elec       q    Type
REMARK                         _______ _______ _______ _____ _____    ______ ____
ROOT
ATOM      8  C   UNL     1      -1.573 -10.775   0.000  0.00  0.00    +0.000 C 
ENDROOT
BRANCH   8   7
ATOM      7  C   UNL     1      -2.873 -10.025   0.000  0.00  0.00    +0.000 C 
BRANCH   7   6
ATOM      6  C   UNL     1      -4.172 -10.775   0.000  0.00  0.00    +0.005 C 
BRANCH   6   5
ATOM      5  C   UNL     1      -5.471 -10.025   0.000  0.00  0.00    +0.039 C 
BRANCH   5   4
ATOM      1  C   UNL     1      -8.069 -10.025   0.000  0.00  0.00    +0.162 A 
ATOM      4  C   UNL     1      -6.770 -10.775   0.000  0.00  0.00    -0.002 A 
ATOM     22  C   UNL     1      -6.770 -12.275   0.000  0.00  0.00    +0.007 A 
ATOM     23  C   UNL     1      -8.069 -13.025   0.000  0.00  0.00    +0.004 A 
ATOM     24  C   UNL     1      -9.368 -12.275   0.000  0.00  0.00    +0.049 A 
ATOM     25  C   UNL     1      -9.368 -10.775   0.000  0.00  0.00    +0.162 A 
BRANCH   1   2
ATOM      2  O   UNL     1      -8.069  -8.524   0.000  0.00  0.00    -0.503 OA
ATOM      3  H   UNL     1      -7.257  -8.056   0.000  0.00  0.00    +0.292 HD
ENDBRANCH   1   2
BRANCH  25  26
ATOM     26  O   UNL     1     -10.667 -10.025   0.000  0.00  0.00    -0.491 OA
ATOM     27  C   UNL     1     -11.966 -10.775   0.000  0.00  0.00    +0.277 C 
ENDBRANCH  25  26
ENDBRANCH   5   4
ENDBRANCH   6   5
ENDBRANCH   7   6
ENDBRANCH   8   7
BRANCH   8   9
ATOM      9  C   UNL     1      -0.275 -10.025   0.000  0.00  0.00    +0.000 C 
BRANCH   9  10
ATOM     10  C   UNL     1       1.025 -10.775   0.000  0.00  0.00    +0.000 C 
BRANCH  10  11
ATOM     11  C   UNL     1       2.324 -10.025   0.000  0.00  0.00    +0.000 C 
BRANCH  11  12
ATOM     12  C   UNL     1       2.324  -8.524   0.000  0.00  0.00    +0.004 C 
BRANCH  12  13
ATOM     13  C   UNL     1       1.025  -7.774   0.000  0.00  0.00    +0.027 C 
BRANCH  13  14
ATOM     14  C   UNL     1       1.025  -6.274   0.000  0.00  0.00    -0.031 C 
ATOM     15  C   UNL     1      -0.275  -5.524   0.000  0.00  0.00    -0.031 C 
BRANCH  15  16
ATOM     16  C   UNL     1      -1.573  -6.274   0.000  0.00  0.00    +0.027 C 
BRANCH  16  17
ATOM     17  C   UNL     1      -2.873  -5.524   0.000  0.00  0.00    +0.004 C 
BRANCH  17  18
ATOM     18  C   UNL     1      -4.172  -6.274   0.000  0.00  0.00    +0.000 C 
BRANCH  18  19
ATOM     19  C   UNL     1      -5.471  -5.524   0.000  0.00  0.00    -0.000 C 
BRANCH  19  20
ATOM     20  C   UNL     1      -6.770  -6.274   0.000  0.00  0.00    -0.003 C 
ATOM     21  C   UNL     1      -8.069  -5.524   0.000  0.00  0.00    +0.004 C 
ENDBRANCH  19  20
ENDBRANCH  18  19
ENDBRANCH  17  18
ENDBRANCH  16  17
ENDBRANCH  15  16
ENDBRANCH  13  14
ENDBRANCH  12  13
ENDBRANCH  11  12
ENDBRANCH  10  11
ENDBRANCH   9  10
ENDBRANCH   8   9
TORSDOF 17