REMARK  Name = 637916
REMARK  10 active torsions:
REMARK  status: ('A' for Active; 'I' for Inactive)
REMARK    1  A    between atoms: C_3  and  C_16
REMARK    2  A    between atoms: C_6  and  N_7
REMARK    3  A    between atoms: N_7  and  C_8
REMARK    4  A    between atoms: N_7  and  C_12
REMARK    5  A    between atoms: C_8  and  C_9
REMARK    6  A    between atoms: C_9  and  C_10
REMARK    7  A    between atoms: C_12  and  C_13
REMARK    8  A    between atoms: C_13  and  C_14
REMARK    9  A    between atoms: C_19  and  C_23
REMARK   10  A    between atoms: C_27  and  N_30
REMARK                            x       y       z     vdW  Elec       q    Type
REMARK                         _______ _______ _______ _____ _____    ______ ____
ROOT
ATOM     15  C   UNL     1      -4.263 -12.854   0.000  0.00  0.00    +0.043 C 
ATOM     16  C   UNL     1      -3.513 -11.555   0.000  0.00  0.00    +0.152 C 
ATOM     17  C   UNL     1      -4.123 -10.184   0.000  0.00  0.00    +0.364 C 
ATOM     18  O   UNL     1      -5.590  -9.872   0.000  0.00  0.00    -0.243 OA
ATOM     19  O   UNL     1      -3.008  -9.181   0.000  0.00  0.00    -0.402 OA
ATOM     20  C   UNL     1      -1.709  -9.931   0.000  0.00  0.00    +0.234 C 
ATOM     31  N   UNL     1      -2.021 -11.398   0.000  0.00  0.00    -0.205 NA
ENDROOT
BRANCH  20  21
ATOM     21  C   UNL     1      -0.339  -9.320   0.000  0.00  0.00    +0.062 A 
ATOM     22  C   UNL     1       0.875 -10.202   0.000  0.00  0.00    +0.099 A 
ATOM     23  C   UNL     1       2.245  -9.592   0.000  0.00  0.00    +0.274 A 
ATOM     27  C   UNL     1       2.402  -8.100   0.000  0.00  0.00    +0.086 A 
ATOM     28  C   UNL     1       1.188  -7.218   0.000  0.00  0.00    +0.027 A 
ATOM     29  C   UNL     1      -0.182  -7.829   0.000  0.00  0.00    +0.054 A 
ATOM     30 CL   UNL     1      -1.396  -6.947   0.000  0.00  0.00    -0.083 Cl
BRANCH  23  24
ATOM     24  N   UNL     1       3.458 -10.474   0.000  0.00  0.00    +0.080 N 
ATOM     25  O   UNL     1       4.829  -9.864   0.000  0.00  0.00    +0.041 OA
ATOM     26  O   UNL     1       3.302 -11.965   0.000  0.00  0.00    -0.576 OA
ENDBRANCH  23  24
ENDBRANCH  20  21
BRANCH  15  14
ATOM      1  C   UNL     1      -3.513 -16.751   0.000  0.00  0.00    +0.024 A 
ATOM      2  C   UNL     1      -2.013 -16.751   0.000  0.00  0.00    +0.030 A 
ATOM     12  C   UNL     1      -1.263 -15.452   0.000  0.00  0.00    +0.024 A 
ATOM     13  C   UNL     1      -2.013 -14.153   0.000  0.00  0.00    +0.010 A 
ATOM     14  C   UNL     1      -3.513 -14.153   0.000  0.00  0.00    -0.023 A 
ATOM     32  C   UNL     1      -4.263 -15.452   0.000  0.00  0.00    +0.010 A 
BRANCH   2   3
ATOM      3  N   UNL     1      -1.263 -18.050   0.000  0.00  0.00    -0.328 N 
BRANCH   3   4
ATOM      4  C   UNL     1       0.237 -18.050   0.000  0.00  0.00    +0.120 C 
BRANCH   4   5
ATOM      5  C   UNL     1       0.987 -19.349   0.000  0.00  0.00    +0.137 C 
BRANCH   5   6
ATOM      6  C   UNL     1       2.487 -19.349   0.000  0.00  0.00    +0.064 C 
ATOM      7  N   UNL     1       3.987 -19.349   0.000  0.00  0.00    -0.197 NA
ENDBRANCH   5   6
ENDBRANCH   4   5
ENDBRANCH   3   4
BRANCH   3   8
ATOM      8  C   UNL     1      -2.013 -19.349   0.000  0.00  0.00    +0.120 C 
BRANCH   8   9
ATOM      9  C   UNL     1      -1.263 -20.648   0.000  0.00  0.00    +0.137 C 
BRANCH   9  10
ATOM     10  C   UNL     1      -2.013 -21.947   0.000  0.00  0.00    +0.064 C 
ATOM     11  N   UNL     1      -2.763 -23.246   0.000  0.00  0.00    -0.197 NA
ENDBRANCH   9  10
ENDBRANCH   8   9
ENDBRANCH   3   8
ENDBRANCH   2   3
ENDBRANCH  15  14
TORSDOF 10