REMARK  Name = 623051
REMARK  3 active torsions:
REMARK  status: ('A' for Active; 'I' for Inactive)
REMARK    1  A    between atoms: C_8  and  C_10
REMARK    2  A    between atoms: N_13  and  C_18
REMARK    3  A    between atoms: C_19  and  C_27
REMARK                            x       y       z     vdW  Elec       q    Type
REMARK                         _______ _______ _______ _____ _____    ______ ____
ROOT
ATOM      5  C   UNL     1      -5.920  -8.440   0.000  0.00  0.00    +0.226 C 
ATOM      6  C   UNL     1      -6.077  -6.948   0.000  0.00  0.00    +0.238 C 
ATOM      7  O   UNL     1      -7.447  -6.338   0.000  0.00  0.00    -0.286 OA
ATOM      8  C   UNL     1      -4.863  -6.066   0.000  0.00  0.00    +0.294 C 
ATOM      9  O   UNL     1      -5.020  -4.574   0.000  0.00  0.00    -0.266 OA
ATOM     10  N   UNL     1      -3.493  -6.676   0.000  0.00  0.00    -0.197 N 
ATOM     19  C   UNL     1      -3.336  -8.168   0.000  0.00  0.00    +0.294 C 
ATOM     20  O   UNL     1      -1.966  -8.778   0.000  0.00  0.00    -0.266 OA
ATOM     21  C   UNL     1      -4.550  -9.050   0.000  0.00  0.00    +0.238 C 
ATOM     22  O   UNL     1      -4.393 -10.541   0.000  0.00  0.00    -0.286 OA
ENDROOT
BRANCH   5   4
ATOM      1  C   UNL     1     -10.934 -10.228   0.000  0.00  0.00    +0.031 A 
ATOM      2  C   UNL     1      -9.442 -10.071   0.000  0.00  0.00    +0.110 A 
ATOM      3  N   UNL     1      -8.560  -8.858   0.000  0.00  0.00    -0.212 NA
ATOM      4  C   UNL     1      -7.133  -9.321   0.000  0.00  0.00    +0.215 A 
ATOM     23  O   UNL     1      -7.133 -10.821   0.000  0.00  0.00    -0.439 OA
ATOM     24  C   UNL     1      -8.560 -11.285   0.000  0.00  0.00    +0.155 A 
ATOM     25  C   UNL     1      -9.170 -12.655   0.000  0.00  0.00    +0.048 A 
ATOM     26  C   UNL     1     -10.662 -12.812   0.000  0.00  0.00    +0.004 A 
ATOM     27  C   UNL     1     -11.544 -11.598   0.000  0.00  0.00    +0.002 A 
ENDBRANCH   5   4
BRANCH  10  11
ATOM     11  C   UNL     1      -2.279  -5.795   0.000  0.00  0.00    +0.048 A 
ATOM     12  C   UNL     1      -0.909  -6.405   0.000  0.00  0.00    +0.025 A 
ATOM     13  C   UNL     1       0.304  -5.523   0.000  0.00  0.00    +0.022 A 
ATOM     14  C   UNL     1       0.148  -4.031   0.000  0.00  0.00    +0.041 A 
ATOM     15 CL   UNL     1       1.361  -3.150   0.000  0.00  0.00    -0.084 Cl
ATOM     16  C   UNL     1      -1.223  -3.421   0.000  0.00  0.00    +0.025 A 
ATOM     17  C   UNL     1      -2.436  -4.303   0.000  0.00  0.00    -0.027 A 
ATOM     18  C   UNL     1      -3.807  -3.693   0.000  0.00  0.00    +0.046 C 
ENDBRANCH  10  11
TORSDOF 2