REMARK  Name = 642040
REMARK  13 active torsions:
REMARK  status: ('A' for Active; 'I' for Inactive)
REMARK    1  A    between atoms: C_1  and  C_7
REMARK    2  A    between atoms: C_7  and  C_9
REMARK    3  A    between atoms: C_16  and  C_20
REMARK    4  A    between atoms: C_17  and  O_19
REMARK    5  A    between atoms: C_20  and  C_21
REMARK    6  A    between atoms: C_20  and  C_27
REMARK    7  A    between atoms: C_21  and  C_23
REMARK    8  A    between atoms: C_23  and  O_25
REMARK    9  A    between atoms: O_25  and  C_26
REMARK   10  A    between atoms: C_27  and  C_29
REMARK   11  A    between atoms: N_31  and  C_32
REMARK   12  A    between atoms: C_33  and  C_39
REMARK   13  A    between atoms: C_36  and  C_38
REMARK                            x       y       z     vdW  Elec       q    Type
REMARK                         _______ _______ _______ _____ _____    ______ ____
ROOT
ATOM      9  C   UNL     1      12.441   4.500   0.000  0.00  0.00    +0.196 C 
ENDROOT
BRANCH   9   8
ATOM      3  C   UNL     1       5.946   6.750   0.000  0.00  0.00    +0.024 A 
ATOM      4  C   UNL     1       5.946   5.250   0.000  0.00  0.00    +0.014 A 
ATOM      5  C   UNL     1       7.245   4.500   0.000  0.00  0.00    +0.030 A 
ATOM      6  C   UNL     1       8.544   5.250   0.000  0.00  0.00    +0.090 A 
ATOM      7  N   UNL     1       9.843   4.500   0.000  0.00  0.00    -0.244 NA
ATOM      8  C   UNL     1      11.142   5.250   0.000  0.00  0.00    +0.122 A 
ATOM     30  C   UNL     1      11.142   6.750   0.000  0.00  0.00    +0.236 A 
ATOM     33  N   UNL     1       9.843   7.500   0.000  0.00  0.00    -0.210 NA
ATOM     34  C   UNL     1       8.544   6.750   0.000  0.00  0.00    +0.094 A 
ATOM     35  C   UNL     1       7.245   7.500   0.000  0.00  0.00    +0.041 A 
BRANCH   3   2
ATOM      2  C   UNL     1       4.647   7.500   0.000  0.00  0.00    +0.193 C 
ATOM     36  O   UNL     1       4.647   9.000   0.000  0.00  0.00    -0.287 OA
BRANCH   2   1
ATOM      1  C   UNL     1       3.348   6.750   0.000  0.00  0.00    +0.022 A 
ATOM     37  C   UNL     1       3.348   5.250   0.000  0.00  0.00    +0.012 A 
ATOM     38  C   UNL     1       2.049   4.500   0.000  0.00  0.00    +0.001 A 
ATOM     39  C   UNL     1       0.750   5.250   0.000  0.00  0.00    +0.000 A 
ATOM     40  C   UNL     1       0.750   6.750   0.000  0.00  0.00    +0.001 A 
ATOM     41  C   UNL     1       2.049   7.500   0.000  0.00  0.00    +0.012 A 
ENDBRANCH   2   1
ENDBRANCH   3   2
BRANCH  30  31
ATOM     31  O   UNL     1      12.441   7.500   0.000  0.00  0.00    -0.491 OA
ATOM     32  H   UNL     1      13.253   7.032   0.000  0.00  0.00    +0.294 HD
ENDBRANCH  30  31
ENDBRANCH   9   8
BRANCH   9  10
ATOM     10  C   UNL     1      13.740   5.250   0.000  0.00  0.00    +0.234 C 
ATOM     23  O   UNL     1      13.740   6.750   0.000  0.00  0.00    -0.286 OA
BRANCH  10  11
ATOM     11  C   UNL     1      15.039   4.500   0.000  0.00  0.00    +0.285 C 
ATOM     12  N   UNL     1      16.339   5.250   0.000  0.00  0.00    -0.279 N 
ATOM     13  H   UNL     1      16.339   6.234   0.000  0.00  0.00    +0.155 HD
ATOM     22  O   UNL     1      15.039   3.000   0.000  0.00  0.00    -0.267 OA
BRANCH  12  14
ATOM     14  C   UNL     1      17.637   4.500   0.000  0.00  0.00    +0.037 A 
ATOM     15  C   UNL     1      18.936   5.250   0.000  0.00  0.00    +0.027 A 
ATOM     16  C   UNL     1      20.236   4.500   0.000  0.00  0.00    -0.049 A 
ATOM     17  C   UNL     1      21.535   5.250   0.000  0.00  0.00    +0.044 C 
ATOM     18  C   UNL     1      20.236   3.000   0.000  0.00  0.00    +0.004 A 
ATOM     19  C   UNL     1      18.936   2.250   0.000  0.00  0.00    +0.005 A 
ATOM     20  C   UNL     1      17.637   3.000   0.000  0.00  0.00    -0.029 A 
ATOM     21  C   UNL     1      16.339   2.250   0.000  0.00  0.00    +0.045 C 
ENDBRANCH  12  14
ENDBRANCH  10  11
ENDBRANCH   9  10
BRANCH   9  24
ATOM     24  C   UNL     1      12.441   3.000   0.000  0.00  0.00    +0.256 C 
ATOM     29  O   UNL     1      13.740   2.250   0.000  0.00  0.00    -0.284 OA
BRANCH  24  25
ATOM     25  C   UNL     1      11.142   2.250   0.000  0.00  0.00    +0.376 C 
ATOM     28  O   UNL     1      11.142   0.750   0.000  0.00  0.00    -0.242 OA
BRANCH  25  26
ATOM     26  O   UNL     1       9.843   3.000   0.000  0.00  0.00    -0.462 OA
ATOM     27  C   UNL     1       8.544   2.250   0.000  0.00  0.00    +0.280 C 
ENDBRANCH  25  26
ENDBRANCH  24  25
ENDBRANCH   9  24
TORSDOF 10