REMARK  Name = 606532
REMARK  5 active torsions:
REMARK  status: ('A' for Active; 'I' for Inactive)
REMARK    1  A    between atoms: C_1  and  N_7
REMARK    2  A    between atoms: C_3  and  N_13
REMARK    3  A    between atoms: C_4  and  N_10
REMARK    4  A    between atoms: C_6  and  O_8
REMARK    5  A    between atoms: O_8  and  C_9
REMARK                            x       y       z     vdW  Elec       q    Type
REMARK                         _______ _______ _______ _____ _____    ______ ____
ROOT
ATOM      1  C   UNL     1       2.152   8.109   0.000  0.00  0.00    +0.074 A 
ATOM      5  C   UNL     1       3.451   7.359   0.000  0.00  0.00    +0.148 A 
ATOM      8  C   UNL     1       3.451   5.859   0.000  0.00  0.00    +0.139 A 
ATOM      9  C   UNL     1       2.152   5.109   0.000  0.00  0.00    +0.353 A 
ATOM     13  C   UNL     1       0.853   5.859   0.000  0.00  0.00    +0.351 A 
ATOM     17  C   UNL     1       0.853   7.359   0.000  0.00  0.00    +0.118 A 
ENDROOT
BRANCH   1   2
ATOM      2  N   UNL     1       2.152   9.609   0.000  0.00  0.00    -0.355 N 
ATOM      3  H   UNL     1       1.300  10.101   0.000  0.00  0.00    +0.142 HD
ATOM      4  H   UNL     1       3.005  10.101   0.000  0.00  0.00    +0.142 HD
ENDBRANCH   1   2
BRANCH   9  10
ATOM     10  N   UNL     1       2.152   3.609   0.000  0.00  0.00    +0.087 N 
ATOM     11  O   UNL     1       0.853   2.859   0.000  0.00  0.00    +0.042 OA
ATOM     12  O   UNL     1       3.451   2.859   0.000  0.00  0.00    -0.576 OA
ENDBRANCH   9  10
BRANCH  13  14
ATOM     14  N   UNL     1      -0.446   5.109   0.000  0.00  0.00    +0.087 N 
ATOM     15  O   UNL     1      -1.745   5.859   0.000  0.00  0.00    +0.042 OA
ATOM     16  O   UNL     1      -0.446   3.609   0.000  0.00  0.00    -0.576 OA
ENDBRANCH  13  14
BRANCH   5   6
ATOM      6  O   UNL     1       4.750   8.109   0.000  0.00  0.00    -0.493 OA
ATOM      7  C   UNL     1       6.050   7.359   0.000  0.00  0.00    +0.277 C 
ENDBRANCH   5   6
TORSDOF 4