REMARK  Name = 611750
REMARK  9 active torsions:
REMARK  status: ('A' for Active; 'I' for Inactive)
REMARK    1  A    between atoms: C_1  and  C_7
REMARK    2  A    between atoms: C_3  and  O_10
REMARK    3  A    between atoms: C_4  and  C_12
REMARK    4  A    between atoms: C_6  and  O_8
REMARK    5  A    between atoms: O_8  and  C_9
REMARK    6  A    between atoms: O_10  and  C_11
REMARK    7  A    between atoms: C_12  and  O_13
REMARK    8  A    between atoms: C_12  and  C_14
REMARK    9  A    between atoms: C_14  and  C_15
REMARK                            x       y       z     vdW  Elec       q    Type
REMARK                         _______ _______ _______ _____ _____    ______ ____
ROOT
ATOM      1  C   UNL     1       0.649   5.571   0.000  0.00  0.00    -0.005 A 
ATOM      2  C   UNL     1      -0.851   5.571   0.000  0.00  0.00    +0.047 C 
ATOM      3  C   UNL     1       1.400   4.272   0.000  0.00  0.00    +0.124 A 
ATOM      6  C   UNL     1       2.900   4.272   0.000  0.00  0.00    +0.055 A 
ATOM      7  C   UNL     1       3.650   5.571   0.000  0.00  0.00    +0.026 A 
ATOM     14  C   UNL     1       2.900   6.870   0.000  0.00  0.00    +0.126 A 
ATOM     17  C   UNL     1       1.400   6.870   0.000  0.00  0.00    +0.053 A 
ENDROOT
BRANCH   3   4
ATOM      4  O   UNL     1       0.649   2.973   0.000  0.00  0.00    -0.495 OA
ATOM      5  C   UNL     1      -0.851   2.973   0.000  0.00  0.00    +0.277 C 
ENDBRANCH   3   4
BRANCH  14  15
ATOM     15  O   UNL     1       3.650   8.169   0.000  0.00  0.00    -0.495 OA
ATOM     16  C   UNL     1       2.900   9.468   0.000  0.00  0.00    +0.277 C 
ENDBRANCH  14  15
BRANCH   7   8
ATOM      8  C   UNL     1       5.149   5.571   0.000  0.00  0.00    +0.149 C 
BRANCH   8  12
ATOM     12  O   UNL     1       5.899   6.870   0.000  0.00  0.00    -0.387 OA
ATOM     13  H   UNL     1       6.869   6.870   0.000  0.00  0.00    +0.210 HD
ENDBRANCH   8  12
BRANCH   8   9
ATOM      9  C   UNL     1       5.899   4.272   0.000  0.00  0.00    +0.047 C 
BRANCH   9  10
ATOM     10  C   UNL     1       5.149   2.973   0.000  0.00  0.00    +0.083 C 
ATOM     11 BR   UNL     1       3.650   2.973   0.000  0.00  0.00    -0.092 Br
ENDBRANCH   9  10
ENDBRANCH   8   9
ENDBRANCH   7   8
TORSDOF 6