REMARK  Name = 659997
REMARK  7 active torsions:
REMARK  status: ('A' for Active; 'I' for Inactive)
REMARK    1  A    between atoms: C_2  and  O_7
REMARK    2  A    between atoms: C_5  and  O_8
REMARK    3  A    between atoms: C_13  and  O_14
REMARK    4  A    between atoms: O_14  and  C_15
REMARK    5  A    between atoms: C_15  and  C_16
REMARK    6  A    between atoms: C_16  and  O_17
REMARK    7  A    between atoms: O_17  and  C_18
REMARK                            x       y       z     vdW  Elec       q    Type
REMARK                         _______ _______ _______ _____ _____    ______ ____
ROOT
ATOM      1  C   UNL     1     -12.441  -3.000   0.000  0.00  0.00    +0.050 A 
ATOM      2  C   UNL     1     -12.441  -4.500   0.000  0.00  0.00    +0.050 A 
ATOM      3  C   UNL     1     -11.142  -5.250   0.000  0.00  0.00    +0.129 A 
ATOM      6  C   UNL     1      -9.843  -4.500   0.000  0.00  0.00    +0.081 A 
ATOM      7  C   UNL     1      -8.544  -5.250   0.000  0.00  0.00    +0.233 C 
ATOM      8  O   UNL     1      -8.544  -6.750   0.000  0.00  0.00    -0.283 OA
ATOM      9  C   UNL     1      -7.245  -4.500   0.000  0.00  0.00    +0.190 C 
ATOM     15  C   UNL     1      -7.245  -3.000   0.000  0.00  0.00    +0.134 C 
ATOM     16 CL   UNL     1      -5.946  -2.250   0.000  0.00  0.00    -0.076 Cl
ATOM     17  C   UNL     1      -8.544  -2.250   0.000  0.00  0.00    +0.212 C 
ATOM     18  O   UNL     1      -8.544  -0.750   0.000  0.00  0.00    -0.285 OA
ATOM     19  C   UNL     1      -9.843  -3.000   0.000  0.00  0.00    +0.079 A 
ATOM     20  C   UNL     1     -11.142  -2.250   0.000  0.00  0.00    +0.129 A 
ENDROOT
BRANCH   3   4
ATOM      4  O   UNL     1     -11.142  -6.750   0.000  0.00  0.00    -0.506 OA
ATOM      5  H   UNL     1     -11.954  -7.218   0.000  0.00  0.00    +0.292 HD
ENDBRANCH   3   4
BRANCH  20  21
ATOM     21  O   UNL     1     -11.142  -0.750   0.000  0.00  0.00    -0.506 OA
ATOM     22  H   UNL     1     -10.331  -0.281   0.000  0.00  0.00    +0.292 HD
ENDBRANCH  20  21
BRANCH   9  10
ATOM     10  O   UNL     1      -5.946  -5.250   0.000  0.00  0.00    -0.484 OA
BRANCH  10  11
ATOM     11  C   UNL     1      -4.647  -4.500   0.000  0.00  0.00    +0.257 C 
BRANCH  11  12
ATOM     12  C   UNL     1      -3.348  -5.250   0.000  0.00  0.00    +0.200 C 
BRANCH  12  13
ATOM     13  O   UNL     1      -2.049  -4.500   0.000  0.00  0.00    -0.380 OA
ATOM     14  C   UNL     1      -0.750  -5.250   0.000  0.00  0.00    +0.194 C 
ENDBRANCH  12  13
ENDBRANCH  11  12
ENDBRANCH  10  11
ENDBRANCH   9  10
TORSDOF 6