REMARK  Name = 697468
REMARK  29 active torsions:
REMARK  status: ('A' for Active; 'I' for Inactive)
REMARK    1  A    between atoms: C_1  and  O_9
REMARK    2  A    between atoms: C_3  and  C_7
REMARK    3  A    between atoms: C_4  and  O_23
REMARK    4  A    between atoms: C_5  and  O_8
REMARK    5  A    between atoms: C_6  and  N_11
REMARK    6  A    between atoms: C_7  and  O_22
REMARK    7  A    between atoms: O_8  and  C_24
REMARK    8  A    between atoms: O_9  and  C_15
REMARK    9  A    between atoms: C_12  and  C_14
REMARK   10  A    between atoms: C_15  and  C_16
REMARK   11  A    between atoms: C_24  and  C_26
REMARK   12  A    between atoms: C_24  and  C_62
REMARK   13  A    between atoms: C_27  and  C_28
REMARK   14  A    between atoms: C_27  and  C_63
REMARK   15  A    between atoms: C_27  and  N_66
REMARK   16  A    between atoms: C_30  and  N_31
REMARK   17  A    between atoms: C_30  and  C_32
REMARK   18  A    between atoms: C_30  and  C_33
REMARK   19  A    between atoms: C_32  and  C_35
REMARK   20  A    between atoms: C_35  and  C_36
REMARK   21  A    between atoms: C_37  and  N_60
REMARK   22  A    between atoms: C_50  and  N_51
REMARK   23  A    between atoms: C_55  and  N_56
REMARK   24  A    between atoms: C_55  and  C_57
REMARK   25  A    between atoms: C_57  and  C_58
REMARK   26  A    between atoms: C_58  and  C_59
REMARK   27  A    between atoms: C_59  and  N_60
REMARK   28  A    between atoms: C_63  and  C_64
REMARK   29  A    between atoms: C_63  and  C_65
REMARK                            x       y       z     vdW  Elec       q    Type
REMARK                         _______ _______ _______ _____ _____    ______ ____
ROOT
ATOM     27  C   UNL     1     -18.936  -7.500   0.000  0.00  0.00    +0.234 C 
ATOM     28  N   UNL     1     -17.637  -8.250   0.000  0.00  0.00    -0.302 N 
ATOM     29  H   UNL     1     -17.637  -9.235   0.000  0.00  0.00    +0.150 HD
ATOM     65  O   UNL     1     -18.936  -6.000   0.000  0.00  0.00    -0.274 OA
ENDROOT
BRANCH  27  23
ATOM     23  C   UNL     1     -20.236  -8.250   0.000  0.00  0.00    +0.161 C 
BRANCH  23  21
ATOM     20  C   UNL     1     -22.834  -8.250   0.000  0.00  0.00    +0.242 C 
ATOM     21  N   UNL     1     -21.535  -7.500   0.000  0.00  0.00    -0.302 N 
ATOM     22  H   UNL     1     -21.535  -6.516   0.000  0.00  0.00    +0.150 HD
ATOM     66  O   UNL     1     -22.834  -9.750   0.000  0.00  0.00    -0.273 OA
BRANCH  20  18
ATOM     18  C   UNL     1     -24.133  -7.500   0.000  0.00  0.00    +0.201 C 
ATOM     19  C   UNL     1     -24.133  -6.000   0.000  0.00  0.00    +0.048 C 
BRANCH  18  17
ATOM     17  O   UNL     1     -25.432  -8.250   0.000  0.00  0.00    -0.360 OA
BRANCH  17  16
ATOM      1  C   UNL     1     -26.731  -7.500   0.000  0.00  0.00    +0.274 C 
ATOM     10  C   UNL     1     -26.731  -9.000   0.000  0.00  0.00    +0.160 C 
ATOM     16  C   UNL     1     -25.432  -9.750   0.000  0.00  0.00    +0.175 C 
ATOM     67  C   UNL     1     -24.133  -9.000   0.000  0.00  0.00    +0.176 C 
ATOM     70  C   UNL     1     -24.133  -7.500   0.000  0.00  0.00    +0.178 C 
ATOM     74  O   UNL     1     -25.432  -6.750   0.000  0.00  0.00    -0.341 OA
BRANCH  10  11
ATOM     11  N   UNL     1     -28.030  -9.750   0.000  0.00  0.00    -0.305 N 
ATOM     12  H   UNL     1     -28.882  -9.258   0.000  0.00  0.00    +0.149 HD
ATOM     13  C   UNL     1     -28.030 -11.250   0.000  0.00  0.00    +0.210 C 
ATOM     14  C   UNL     1     -29.329 -12.000   0.000  0.00  0.00    +0.109 C 
ATOM     15  O   UNL     1     -26.731 -12.000   0.000  0.00  0.00    -0.276 OA
ENDBRANCH  10  11
BRANCH  67  68
ATOM     68  O   UNL     1     -22.834  -9.750   0.000  0.00  0.00    -0.387 OA
ATOM     69  H   UNL     1     -22.834 -10.720   0.000  0.00  0.00    +0.210 HD
ENDBRANCH  67  68
BRANCH   1   2
ATOM      2  O   UNL     1     -28.208  -7.761   0.000  0.00  0.00    -0.345 OA
BRANCH   2   3
ATOM      3  C   UNL     1     -29.172  -6.611   0.000  0.00  0.00    +0.198 C 
BRANCH   3   4
ATOM      4  C   UNL     1     -28.659  -5.202   0.000  0.00  0.00    -0.022 A 
ATOM      5  C   UNL     1     -29.623  -4.053   0.000  0.00  0.00    +0.006 A 
ATOM      6  C   UNL     1     -29.110  -2.643   0.000  0.00  0.00    +0.000 A 
ATOM      7  C   UNL     1     -27.633  -2.383   0.000  0.00  0.00    +0.000 A 
ATOM      8  C   UNL     1     -26.669  -3.532   0.000  0.00  0.00    +0.000 A 
ATOM      9  C   UNL     1     -27.182  -4.941   0.000  0.00  0.00    +0.006 A 
ENDBRANCH   3   4
ENDBRANCH   2   3
ENDBRANCH   1   2
BRANCH  70  71
ATOM     71  C   UNL     1     -22.834  -6.750   0.000  0.00  0.00    +0.190 C 
BRANCH  71  72
ATOM     72  O   UNL     1     -22.834  -5.250   0.000  0.00  0.00    -0.392 OA
ATOM     73  H   UNL     1     -21.994  -4.765   0.000  0.00  0.00    +0.210 HD
ENDBRANCH  71  72
ENDBRANCH  70  71
ENDBRANCH  17  16
ENDBRANCH  18  17
ENDBRANCH  20  18
ENDBRANCH  23  21
BRANCH  23  24
ATOM     24  C   UNL     1     -20.236  -9.750   0.000  0.00  0.00    +0.012 C 
ATOM     25  C   UNL     1     -18.936 -10.500   0.000  0.00  0.00    +0.009 C 
ATOM     26  C   UNL     1     -21.535 -10.500   0.000  0.00  0.00    +0.009 C 
ENDBRANCH  23  24
ENDBRANCH  27  23
BRANCH  28  30
ATOM     30  C   UNL     1     -16.339  -7.500   0.000  0.00  0.00    +0.159 C 
BRANCH  30  31
ATOM     31  C   UNL     1     -16.339  -6.000   0.000  0.00  0.00    +0.231 C 
ATOM     32  N   UNL     1     -15.039  -5.250   0.000  0.00  0.00    -0.328 N 
ATOM     33  H   UNL     1     -15.039  -4.266   0.000  0.00  0.00    +0.145 HD
ATOM     34  H   UNL     1     -14.187  -5.742   0.000  0.00  0.00    +0.145 HD
ATOM     35  O   UNL     1     -17.637  -5.250   0.000  0.00  0.00    -0.274 OA
ENDBRANCH  30  31
BRANCH  30  36
ATOM     36  C   UNL     1     -15.039  -8.250   0.000  0.00  0.00    +0.041 C 
BRANCH  36  37
ATOM     37  C   UNL     1     -13.740  -7.500   0.000  0.00  0.00    +0.098 C 
BRANCH  37  38
ATOM     38  C   UNL     1     -12.441  -8.250   0.000  0.00  0.00    +0.213 C 
ATOM     39  N   UNL     1     -11.142  -7.500   0.000  0.00  0.00    -0.315 N 
ATOM     40  H   UNL     1     -11.142  -6.516   0.000  0.00  0.00    +0.149 HD
ATOM     64  O   UNL     1     -12.441  -9.750   0.000  0.00  0.00    -0.276 OA
BRANCH  39  41
ATOM     41  C   UNL     1      -9.843  -8.250   0.000  0.00  0.00    +0.104 C 
BRANCH  41  42
ATOM     42  C   UNL     1      -8.544  -7.500   0.000  0.00  0.00    +0.020 C 
BRANCH  42  43
ATOM     43  C   UNL     1      -7.245  -8.250   0.000  0.00  0.00    +0.020 C 
BRANCH  43  44
ATOM     44  C   UNL     1      -5.946  -7.500   0.000  0.00  0.00    +0.101 C 
BRANCH  44  45
ATOM     45  N   UNL     1      -4.647  -8.250   0.000  0.00  0.00    -0.343 N 
ATOM     46  H   UNL     1      -3.794  -7.758   0.000  0.00  0.00    +0.146 HD
BRANCH  45  47
ATOM     47  C   UNL     1      -4.647  -9.750   0.000  0.00  0.00    +0.052 A 
ATOM     48  C   UNL     1      -3.348 -10.500   0.000  0.00  0.00    +0.099 A 
ATOM     49  C   UNL     1      -2.049  -9.750   0.000  0.00  0.00    +0.284 A 
ATOM     53  C   UNL     1      -0.750 -10.500   0.000  0.00  0.00    +0.085 A 
ATOM     54  C   UNL     1      -0.750 -12.000   0.000  0.00  0.00    +0.009 A 
ATOM     55  C   UNL     1      -2.049 -12.750   0.000  0.00  0.00    +0.029 A 
ATOM     56  C   UNL     1      -3.348 -12.000   0.000  0.00  0.00    +0.080 A 
ATOM     57  N   UNL     1      -4.647 -12.750   0.000  0.00  0.00    -0.246 NA
ATOM     58  C   UNL     1      -5.946 -12.000   0.000  0.00  0.00    +0.073 A 
ATOM     59  C   UNL     1      -7.245 -12.750   0.000  0.00  0.00    +0.028 A 
ATOM     60  C   UNL     1      -8.544 -12.000   0.000  0.00  0.00    +0.002 A 
ATOM     61  C   UNL     1      -8.544 -10.500   0.000  0.00  0.00    +0.001 A 
ATOM     62  C   UNL     1      -7.245  -9.750   0.000  0.00  0.00    +0.012 A 
ATOM     63  C   UNL     1      -5.946 -10.500   0.000  0.00  0.00    +0.022 A 
BRANCH  49  50
ATOM     50  N   UNL     1      -2.049  -8.250   0.000  0.00  0.00    +0.080 N 
ATOM     51  O   UNL     1      -0.750  -7.500   0.000  0.00  0.00    +0.041 OA
ATOM     52  O   UNL     1      -3.348  -7.500   0.000  0.00  0.00    -0.576 OA
ENDBRANCH  49  50
ENDBRANCH  45  47
ENDBRANCH  44  45
ENDBRANCH  43  44
ENDBRANCH  42  43
ENDBRANCH  41  42
ENDBRANCH  39  41
ENDBRANCH  37  38
ENDBRANCH  36  37
ENDBRANCH  30  36
ENDBRANCH  28  30
TORSDOF 25