REMARK  Name = 635438
REMARK  5 active torsions:
REMARK  status: ('A' for Active; 'I' for Inactive)
REMARK    1  A    between atoms: C_7  and  O_11
REMARK    2  A    between atoms: C_7  and  C_13
REMARK    3  A    between atoms: C_13  and  C_14
REMARK    4  A    between atoms: C_14  and  C_16
REMARK    5  A    between atoms: C_18  and  N_23
REMARK                            x       y       z     vdW  Elec       q    Type
REMARK                         _______ _______ _______ _____ _____    ______ ____
ROOT
ATOM      1  C   UNL     1      -8.690  -7.383   0.000  0.00  0.00    +0.029 A 
ATOM      2  C   UNL     1      -7.391  -8.133   0.000  0.00  0.00    +0.017 A 
ATOM      3  C   UNL     1      -5.964  -7.670   0.000  0.00  0.00    +0.175 C 
ATOM     18  C   UNL     1      -5.083  -8.883   0.000  0.00  0.00    +0.254 C 
ATOM     19  O   UNL     1      -3.583  -8.883   0.000  0.00  0.00    -0.272 OA
ATOM     20  N   UNL     1      -5.964 -10.097   0.000  0.00  0.00    -0.281 N 
ATOM     21  H   UNL     1      -5.660 -11.033   0.000  0.00  0.00    +0.155 HD
ATOM     22  C   UNL     1      -7.391  -9.633   0.000  0.00  0.00    +0.058 A 
ATOM     23  C   UNL     1      -8.690 -10.383   0.000  0.00  0.00    +0.064 A 
ATOM     24 CL   UNL     1      -8.690 -11.883   0.000  0.00  0.00    -0.082 Cl
ATOM     25  C   UNL     1      -9.989  -9.633   0.000  0.00  0.00    +0.042 A 
ATOM     26  C   UNL     1      -9.989  -8.133   0.000  0.00  0.00    +0.043 A 
ATOM     27 CL   UNL     1     -11.288  -7.383   0.000  0.00  0.00    -0.083 Cl
ENDROOT
BRANCH   3  16
ATOM     16  O   UNL     1      -6.574  -6.299   0.000  0.00  0.00    -0.374 OA
ATOM     17  H   UNL     1      -6.004  -5.515   0.000  0.00  0.00    +0.211 HD
ENDBRANCH   3  16
BRANCH   3   4
ATOM      4  C   UNL     1      -4.665  -6.920   0.000  0.00  0.00    +0.129 C 
BRANCH   4   5
ATOM      5  C   UNL     1      -4.665  -5.420   0.000  0.00  0.00    +0.167 C 
ATOM     15  O   UNL     1      -5.964  -4.670   0.000  0.00  0.00    -0.292 OA
BRANCH   5   6
ATOM      6  C   UNL     1      -3.366  -4.670   0.000  0.00  0.00    +0.024 A 
ATOM      7  C   UNL     1      -3.366  -3.170   0.000  0.00  0.00    +0.012 A 
ATOM      8  C   UNL     1      -2.067  -2.420   0.000  0.00  0.00    +0.007 A 
ATOM      9  C   UNL     1      -0.768  -3.170   0.000  0.00  0.00    +0.084 A 
ATOM     10  C   UNL     1      -0.768  -4.670   0.000  0.00  0.00    +0.274 A 
ATOM     14  C   UNL     1      -2.067  -5.420   0.000  0.00  0.00    +0.095 A 
BRANCH  10  11
ATOM     11  N   UNL     1       0.531  -5.420   0.000  0.00  0.00    +0.080 N 
ATOM     12  O   UNL     1       1.830  -4.670   0.000  0.00  0.00    +0.041 OA
ATOM     13  O   UNL     1       0.531  -6.920   0.000  0.00  0.00    -0.576 OA
ENDBRANCH  10  11
ENDBRANCH   5   6
ENDBRANCH   4   5
ENDBRANCH   3   4
TORSDOF 5