REMARK  Name = 5200
REMARK  3 active torsions:
REMARK  status: ('A' for Active; 'I' for Inactive)
REMARK    1  A    between atoms: N_5  and  C_8
REMARK    2  A    between atoms: N_6  and  C_12
REMARK    3  A    between atoms: C_9  and  N_18
REMARK                            x       y       z     vdW  Elec       q    Type
REMARK                         _______ _______ _______ _____ _____    ______ ____
ROOT
ATOM      1  N   UNL     1       8.505  -7.799   0.000  0.00  0.00    -0.176 NA
ATOM      2  C   UNL     1       7.206  -7.049   0.000  0.00  0.00    +0.304 A 
ATOM      3  C   UNL     1       7.206  -5.549   0.000  0.00  0.00    +0.190 A 
ATOM      4  C   UNL     1       8.505  -4.799   0.000  0.00  0.00    +0.129 A 
ATOM      8  N   UNL     1       9.804  -5.549   0.000  0.00  0.00    -0.315 N 
ATOM      9  H   UNL     1      11.103  -4.799   0.000  0.00  0.00    +0.170 HD
ATOM     18  O   UNL     1       5.907  -7.799   0.000  0.00  0.00    -0.263 OA
ATOM     19  C   UNL     1       9.804  -7.049   0.000  0.00  0.00    +0.195 A 
ATOM     20  N   UNL     1      11.103  -7.799   0.000  0.00  0.00    -0.329 N 
ATOM     21  H   UNL     1      11.955  -7.307   0.000  0.00  0.00    +0.145 HD
ATOM     22  H   UNL     1      11.103  -8.783   0.000  0.00  0.00    +0.145 HD
ENDROOT
BRANCH   4   5
ATOM      5  N   UNL     1       8.505  -3.299   0.000  0.00  0.00    -0.343 N 
ATOM      6  H   UNL     1       7.652  -2.807   0.000  0.00  0.00    +0.144 HD
ATOM      7  H   UNL     1       9.357  -2.807   0.000  0.00  0.00    +0.144 HD
ENDBRANCH   4   5
BRANCH   3  10
ATOM     10  N   UNL     1       5.796  -5.036   0.000  0.00  0.00    -0.140 NA
ATOM     11  N   UNL     1       5.536  -3.559   0.000  0.00  0.00    -0.149 NA
BRANCH  11  12
ATOM     12  C   UNL     1       3.210  -2.712   0.000  0.00  0.00    +0.086 A 
ATOM     13  C   UNL     1       2.950  -1.235   0.000  0.00  0.00    +0.029 A 
ATOM     14  C   UNL     1       1.540  -0.722   0.000  0.00  0.00    +0.002 A 
ATOM     15  C   UNL     1       0.391  -1.686   0.000  0.00  0.00    +0.000 A 
ATOM     16  C   UNL     1       0.651  -3.163   0.000  0.00  0.00    +0.002 A 
ATOM     17  C   UNL     1       2.061  -3.676   0.000  0.00  0.00    +0.029 A 
ENDBRANCH  11  12
ENDBRANCH   3  10
TORSDOF 3