REMARK  Name = 643175
REMARK  5 active torsions:
REMARK  status: ('A' for Active; 'I' for Inactive)
REMARK    1  A    between atoms: C_1  and  O_7
REMARK    2  A    between atoms: C_2  and  O_9
REMARK    3  A    between atoms: C_5  and  C_11
REMARK    4  A    between atoms: O_7  and  C_8
REMARK    5  A    between atoms: O_9  and  C_10
REMARK                            x       y       z     vdW  Elec       q    Type
REMARK                         _______ _______ _______ _____ _____    ______ ____
ROOT
ATOM      6  C   UNL     1       2.324   5.524   0.000  0.00  0.00    +0.015 C 
ATOM      7  C   UNL     1       2.324   7.024   0.000  0.00  0.00    +0.001 C 
ATOM      8  C   UNL     1       3.623   7.774   0.000  0.00  0.00    +0.043 C 
ATOM      9  C   UNL     1       3.623   9.274   0.000  0.00  0.00    +0.040 C 
ATOM     10  C   UNL     1       2.324  10.025   0.000  0.00  0.00    -0.036 A 
ATOM     11  C   UNL     1       2.324  11.525   0.000  0.00  0.00    +0.004 A 
ATOM     12  C   UNL     1       1.025  12.275   0.000  0.00  0.00    +0.000 A 
ATOM     13  C   UNL     1      -0.275  11.525   0.000  0.00  0.00    +0.001 A 
ATOM     14  C   UNL     1      -0.275  10.025   0.000  0.00  0.00    +0.012 A 
ATOM     15  C   UNL     1       1.025   9.274   0.000  0.00  0.00    +0.025 A 
ATOM     16  C   UNL     1       1.025   7.774   0.000  0.00  0.00    +0.189 C 
ATOM     17  O   UNL     1      -0.275   7.024   0.000  0.00  0.00    -0.287 OA
ENDROOT
BRANCH   6   5
ATOM      1  C   UNL     1       4.922   2.525   0.000  0.00  0.00    +0.162 A 
ATOM      4  C   UNL     1       3.623   3.275   0.000  0.00  0.00    +0.057 A 
ATOM      5  C   UNL     1       3.623   4.774   0.000  0.00  0.00    -0.021 A 
ATOM     18  C   UNL     1       4.922   5.524   0.000  0.00  0.00    +0.012 A 
ATOM     19  C   UNL     1       6.221   4.774   0.000  0.00  0.00    +0.050 A 
ATOM     20  C   UNL     1       6.221   3.275   0.000  0.00  0.00    +0.162 A 
BRANCH   1   2
ATOM      2  O   UNL     1       4.922   1.025   0.000  0.00  0.00    -0.491 OA
ATOM      3  C   UNL     1       6.221   0.275   0.000  0.00  0.00    +0.277 C 
ENDBRANCH   1   2
BRANCH  20  21
ATOM     21  O   UNL     1       7.520   2.525   0.000  0.00  0.00    -0.491 OA
ATOM     22  C   UNL     1       7.520   1.025   0.000  0.00  0.00    +0.277 C 
ENDBRANCH  20  21
ENDBRANCH   6   5
TORSDOF 3