REMARK  Name = 635833
REMARK  9 active torsions:
REMARK  status: ('A' for Active; 'I' for Inactive)
REMARK    1  A    between atoms: C_8  and  C_12
REMARK    2  A    between atoms: C_12  and  C_13
REMARK    3  A    between atoms: C_12  and  C_19
REMARK    4  A    between atoms: C_13  and  C_15
REMARK    5  A    between atoms: C_15  and  O_17
REMARK    6  A    between atoms: O_17  and  C_18
REMARK    7  A    between atoms: N_21  and  C_22
REMARK    8  A    between atoms: C_26  and  C_29
REMARK    9  A    between atoms: C_27  and  C_28
REMARK                            x       y       z     vdW  Elec       q    Type
REMARK                         _______ _______ _______ _____ _____    ______ ____
ROOT
ATOM      5  C   UNL     1       7.245   3.750   0.000  0.00  0.00    +0.175 C 
ENDROOT
BRANCH   5   4
ATOM      1  C   UNL     1       2.049   3.750   0.000  0.00  0.00    +0.016 A 
ATOM      2  C   UNL     1       3.348   3.000   0.000  0.00  0.00    +0.030 A 
ATOM      3  S   UNL     1       4.647   3.750   0.000  0.00  0.00    -0.109 S 
ATOM      4  C   UNL     1       5.946   3.000   0.000  0.00  0.00    +0.157 C 
ATOM     24  C   UNL     1       5.946   1.500   0.000  0.00  0.00    +0.232 C 
ATOM     25  O   UNL     1       7.245   0.750   0.000  0.00  0.00    -0.274 OA
ATOM     26  N   UNL     1       4.647   0.750   0.000  0.00  0.00    -0.284 N 
ATOM     27  H   UNL     1       4.647  -0.234   0.000  0.00  0.00    +0.155 HD
ATOM     28  C   UNL     1       3.348   1.500   0.000  0.00  0.00    +0.047 A 
ATOM     29  C   UNL     1       2.049   0.750   0.000  0.00  0.00    +0.024 A 
ATOM     30  C   UNL     1       0.750   1.500   0.000  0.00  0.00    +0.002 A 
ATOM     31  C   UNL     1       0.750   3.000   0.000  0.00  0.00    +0.001 A 
ENDBRANCH   5   4
BRANCH   5   6
ATOM      6  C   UNL     1       8.544   3.000   0.000  0.00  0.00    +0.230 C 
ATOM      7  N   UNL     1       9.843   3.750   0.000  0.00  0.00    -0.285 N 
ATOM      8  H   UNL     1       9.843   4.734   0.000  0.00  0.00    +0.155 HD
ATOM     17  O   UNL     1       8.544   1.500   0.000  0.00  0.00    -0.275 OA
BRANCH   7   9
ATOM      9  C   UNL     1      11.142   3.000   0.000  0.00  0.00    +0.037 A 
ATOM     10  C   UNL     1      12.441   3.750   0.000  0.00  0.00    -0.026 A 
ATOM     11  C   UNL     1      12.441   5.250   0.000  0.00  0.00    +0.046 C 
ATOM     12  C   UNL     1      13.740   3.000   0.000  0.00  0.00    -0.046 A 
ATOM     13  C   UNL     1      15.039   3.750   0.000  0.00  0.00    +0.044 C 
ATOM     14  C   UNL     1      13.740   1.500   0.000  0.00  0.00    +0.004 A 
ATOM     15  C   UNL     1      12.441   0.750   0.000  0.00  0.00    +0.002 A 
ATOM     16  C   UNL     1      11.142   1.500   0.000  0.00  0.00    +0.023 A 
ENDBRANCH   7   9
ENDBRANCH   5   6
BRANCH   5  18
ATOM     18  C   UNL     1       7.245   5.250   0.000  0.00  0.00    +0.253 C 
ATOM     23  O   UNL     1       5.946   6.000   0.000  0.00  0.00    -0.284 OA
BRANCH  18  19
ATOM     19  C   UNL     1       8.544   6.000   0.000  0.00  0.00    +0.376 C 
ATOM     22  O   UNL     1       8.544   7.500   0.000  0.00  0.00    -0.242 OA
BRANCH  19  20
ATOM     20  O   UNL     1       9.843   5.250   0.000  0.00  0.00    -0.462 OA
ATOM     21  C   UNL     1      11.142   6.000   0.000  0.00  0.00    +0.280 C 
ENDBRANCH  19  20
ENDBRANCH  18  19
ENDBRANCH   5  18
TORSDOF 6