REMARK  Name = 63878
REMARK  5 active torsions:
REMARK  status: ('A' for Active; 'I' for Inactive)
REMARK    1  A    between atoms: N1_2  and  C1*_9
REMARK    2  A    between atoms: C2*_10  and  O2*_16
REMARK    3  A    between atoms: C3*_11  and  O3*_15
REMARK    4  A    between atoms: C4*_12  and  C5*_14
REMARK    5  A    between atoms: O5*_13  and  C5*_14
REMARK                            x       y       z     vdW  Elec       q    Type
REMARK                         _______ _______ _______ _____ _____    ______ ____
ROOT
ATOM      1 CL   UNL     1      -2.779   1.232   0.000  0.00  0.00    -0.145 Cl
ATOM      2  H   UNL     1      -1.449   1.232   0.000  0.00  0.00    +0.145 HD
ENDROOT
TORSDOF 0