REMARK  Name = 635326
REMARK  5 active torsions:
REMARK  status: ('A' for Active; 'I' for Inactive)
REMARK    1  A    between atoms: C_8  and  C_9
REMARK    2  A    between atoms: C_8  and  O_21
REMARK    3  A    between atoms: C_9  and  C_13
REMARK    4  A    between atoms: C_13  and  C_15
REMARK    5  A    between atoms: C_18  and  N_23
REMARK                            x       y       z     vdW  Elec       q    Type
REMARK                         _______ _______ _______ _____ _____    ______ ____
ROOT
ATOM      1  C   UNL     1     -12.194   0.387   0.000  0.00  0.00    +0.043 A 
ATOM      2 CL   UNL     1     -13.493   1.137   0.000  0.00  0.00    -0.083 Cl
ATOM      3  C   UNL     1     -10.895   1.137   0.000  0.00  0.00    +0.029 A 
ATOM      4  C   UNL     1      -9.596   0.387   0.000  0.00  0.00    +0.017 A 
ATOM      5  C   UNL     1      -8.169   0.851   0.000  0.00  0.00    +0.175 C 
ATOM     20  C   UNL     1      -7.288  -0.363   0.000  0.00  0.00    +0.254 C 
ATOM     21  N   UNL     1      -8.169  -1.577   0.000  0.00  0.00    -0.281 N 
ATOM     22  H   UNL     1      -7.865  -2.513   0.000  0.00  0.00    +0.155 HD
ATOM     23  O   UNL     1      -5.788  -0.363   0.000  0.00  0.00    -0.272 OA
ATOM     24  C   UNL     1      -9.596  -1.113   0.000  0.00  0.00    +0.058 A 
ATOM     25  C   UNL     1     -10.895  -1.863   0.000  0.00  0.00    +0.064 A 
ATOM     26 CL   UNL     1     -10.895  -3.363   0.000  0.00  0.00    -0.082 Cl
ATOM     27  C   UNL     1     -12.194  -1.113   0.000  0.00  0.00    +0.042 A 
ENDROOT
BRANCH   5   6
ATOM      6  O   UNL     1      -8.779   2.221   0.000  0.00  0.00    -0.374 OA
ATOM      7  H   UNL     1      -8.209   3.006   0.000  0.00  0.00    +0.211 HD
ENDBRANCH   5   6
BRANCH   5   8
ATOM      8  C   UNL     1      -6.870   1.601   0.000  0.00  0.00    +0.129 C 
BRANCH   8   9
ATOM      9  C   UNL     1      -6.870   3.100   0.000  0.00  0.00    +0.167 C 
ATOM     19  O   UNL     1      -5.571   3.850   0.000  0.00  0.00    -0.292 OA
BRANCH   9  10
ATOM     10  C   UNL     1      -8.169   3.850   0.000  0.00  0.00    +0.018 A 
ATOM     11  C   UNL     1      -8.169   5.351   0.000  0.00  0.00    +0.018 A 
ATOM     12  C   UNL     1      -9.468   6.101   0.000  0.00  0.00    +0.085 A 
ATOM     13  C   UNL     1     -10.767   5.351   0.000  0.00  0.00    +0.273 A 
ATOM     17  C   UNL     1     -10.767   3.850   0.000  0.00  0.00    +0.085 A 
ATOM     18  C   UNL     1      -9.468   3.100   0.000  0.00  0.00    +0.018 A 
BRANCH  13  14
ATOM     14  N   UNL     1     -12.066   6.101   0.000  0.00  0.00    +0.080 N 
ATOM     15  O   UNL     1     -13.365   5.351   0.000  0.00  0.00    +0.041 OA
ATOM     16  O   UNL     1     -12.066   7.601   0.000  0.00  0.00    -0.576 OA
ENDBRANCH  13  14
ENDBRANCH   9  10
ENDBRANCH   8   9
ENDBRANCH   5   8
TORSDOF 5