REMARK  Name = 71669
REMARK  5 active torsions:
REMARK  status: ('A' for Active; 'I' for Inactive)
REMARK    1  A    between atoms: C_9  and  C_10
REMARK    2  A    between atoms: C_9  and  C_14
REMARK    3  A    between atoms: C_11  and  C_15
REMARK    4  A    between atoms: C_12  and  C_18
REMARK    5  A    between atoms: C_13  and  C_19
REMARK                            x       y       z     vdW  Elec       q    Type
REMARK                         _______ _______ _______ _____ _____    ______ ____
ROOT
ATOM     11  C   UNL     1       0.275 -10.025   0.000  0.00  0.00    +0.060 A 
ATOM     12  N   UNL     1       0.275 -11.525   0.000  0.00  0.00    -0.219 NA
ATOM     13  C   UNL     1       1.573 -12.275   0.000  0.00  0.00    +0.214 A 
ATOM     14  N   UNL     1       2.873 -11.525   0.000  0.00  0.00    -0.199 NA
ATOM     15  C   UNL     1       2.873 -10.025   0.000  0.00  0.00    +0.129 A 
ATOM     16  N   UNL     1       4.172  -9.274   0.000  0.00  0.00    -0.343 N 
ATOM     17  H   UNL     1       4.172  -7.774   0.000  0.00  0.00    +0.144 HD
ATOM     18  H   UNL     1       5.471 -10.025   0.000  0.00  0.00    +0.144 HD
ATOM     19  N   UNL     1       1.574 -13.775   0.000  0.00  0.00    -0.327 N 
ATOM     20  H   UNL     1       0.275 -14.525   0.000  0.00  0.00    +0.145 HD
ATOM     21  H   UNL     1       2.873 -14.525   0.000  0.00  0.00    +0.145 HD
ATOM     22  C   UNL     1       1.573  -9.274   0.000  0.00  0.00    +0.043 A 
ENDROOT
BRANCH  22  23
ATOM     23  C   UNL     1       1.573  -7.774   0.000  0.00  0.00    -0.012 A 
ATOM     24  C   UNL     1       2.873  -7.024   0.000  0.00  0.00    +0.021 A 
ATOM     25  C   UNL     1       2.873  -5.524   0.000  0.00  0.00    +0.055 A 
ATOM     30  C   UNL     1       1.573  -4.774   0.000  0.00  0.00    +0.012 A 
ATOM     31  C   UNL     1       0.275  -5.524   0.000  0.00  0.00    +0.001 A 
ATOM     32  C   UNL     1       0.275  -7.024   0.000  0.00  0.00    +0.009 A 
BRANCH  25  26
ATOM     26  C   UNL     1       4.172  -4.774   0.000  0.00  0.00    +0.417 C 
ATOM     27  F   UNL     1       4.922  -6.074   0.000  0.00  0.00    -0.166 F 
ATOM     28  F   UNL     1       3.422  -3.475   0.000  0.00  0.00    -0.166 F 
ATOM     29  F   UNL     1       5.471  -4.024   0.000  0.00  0.00    -0.166 F 
ENDBRANCH  25  26
ENDBRANCH  22  23
BRANCH  11  10
ATOM     10  C   UNL     1      -1.025  -9.274   0.000  0.00  0.00    +0.091 C 
BRANCH  10   9
ATOM      1  C   UNL     1      -4.922 -10.025   0.000  0.00  0.00    +0.001 A 
ATOM      2  C   UNL     1      -4.922 -11.525   0.000  0.00  0.00    +0.012 A 
ATOM      3  C   UNL     1      -3.623 -12.275   0.000  0.00  0.00    +0.055 A 
ATOM      8  C   UNL     1      -2.324 -11.525   0.000  0.00  0.00    +0.016 A 
ATOM      9  C   UNL     1      -2.324 -10.025   0.000  0.00  0.00    -0.041 A 
ATOM     33  C   UNL     1      -3.623  -9.274   0.000  0.00  0.00    +0.004 A 
BRANCH   3   4
ATOM      4  C   UNL     1      -3.623 -13.775   0.000  0.00  0.00    +0.417 C 
ATOM      5  F   UNL     1      -2.123 -13.775   0.000  0.00  0.00    -0.166 F 
ATOM      6  F   UNL     1      -5.123 -13.775   0.000  0.00  0.00    -0.166 F 
ATOM      7  F   UNL     1      -3.623 -15.275   0.000  0.00  0.00    -0.166 F 
ENDBRANCH   3   4
ENDBRANCH  10   9
ENDBRANCH  11  10
TORSDOF 5