REMARK  Name = 607347
REMARK  4 active torsions:
REMARK  status: ('A' for Active; 'I' for Inactive)
REMARK    1  A    between atoms: C_4  and  S_8
REMARK    2  A    between atoms: S_8  and  C_10
REMARK    3  A    between atoms: C_9  and  C_10
REMARK    4  A    between atoms: C_10  and  C_12
REMARK                            x       y       z     vdW  Elec       q    Type
REMARK                         _______ _______ _______ _____ _____    ______ ____
ROOT
ATOM      1  C   UNL     1       0.275   3.623   0.000  0.00  0.00    +0.123 A 
ATOM      2  F   UNL     1      -1.226   3.623   0.000  0.00  0.00    -0.205 F 
ATOM      3  C   UNL     1       1.025   2.324   0.000  0.00  0.00    +0.039 A 
ATOM      4  C   UNL     1       2.525   2.324   0.000  0.00  0.00    +0.017 A 
ATOM      5  C   UNL     1       3.275   3.623   0.000  0.00  0.00    +0.008 A 
ATOM     12  C   UNL     1       2.525   4.922   0.000  0.00  0.00    +0.017 A 
ATOM     13  C   UNL     1       1.025   4.922   0.000  0.00  0.00    +0.039 A 
ENDROOT
BRANCH   5   6
ATOM      6  S   UNL     1       4.774   3.623   0.000  0.00  0.00    -0.119 S 
BRANCH   6   7
ATOM      7  C   UNL     1       5.524   4.922   0.000  0.00  0.00    +0.080 C 
BRANCH   7   8
ATOM      8  C   UNL     1       4.774   6.221   0.000  0.00  0.00    +0.124 C 
ATOM      9 CL   UNL     1       3.275   6.221   0.000  0.00  0.00    -0.124 Cl
ENDBRANCH   7   8
BRANCH   7  10
ATOM     10  C   UNL     1       7.024   4.922   0.000  0.00  0.00    +0.124 C 
ATOM     11 CL   UNL     1       7.774   6.221   0.000  0.00  0.00    -0.124 Cl
ENDBRANCH   7  10
ENDBRANCH   6   7
ENDBRANCH   5   6
TORSDOF 4