REMARK  Name = 632233
REMARK  6 active torsions:
REMARK  status: ('A' for Active; 'I' for Inactive)
REMARK    1  A    between atoms: C_8  and  C_10
REMARK    2  A    between atoms: C_10  and  C_11
REMARK    3  A    between atoms: C_14  and  O_19
REMARK    4  A    between atoms: C_15  and  O_17
REMARK    5  A    between atoms: O_17  and  C_18
REMARK    6  A    between atoms: O_19  and  C_20
REMARK                            x       y       z     vdW  Elec       q    Type
REMARK                         _______ _______ _______ _____ _____    ______ ____
ROOT
ATOM      5  C   UNL     1      -5.835  -1.367   0.000  0.00  0.00    +0.098 C 
ENDROOT
BRANCH   5   4
ATOM      1  C   UNL     1     -10.849  -3.156   0.000  0.00  0.00    +0.017 A 
ATOM      2  C   UNL     1      -9.357  -2.999   0.000  0.00  0.00    +0.039 A 
ATOM      3  S   UNL     1      -8.475  -1.786   0.000  0.00  0.00    -0.072 S 
ATOM      4  C   UNL     1      -7.049  -2.249   0.000  0.00  0.00    +0.084 A 
ATOM     16  N   UNL     1      -7.049  -3.749   0.000  0.00  0.00    -0.244 NA
ATOM     17  C   UNL     1      -8.475  -4.213   0.000  0.00  0.00    +0.078 A 
ATOM     18  C   UNL     1      -9.085  -5.583   0.000  0.00  0.00    +0.029 A 
ATOM     19  C   UNL     1     -10.577  -5.740   0.000  0.00  0.00    +0.002 A 
ATOM     20  C   UNL     1     -11.459  -4.526   0.000  0.00  0.00    +0.001 A 
ENDBRANCH   5   4
BRANCH   5   6
ATOM      6  C   UNL     1      -4.465  -1.978   0.000  0.00  0.00    -0.037 A 
ATOM      7  C   UNL     1      -4.308  -3.469   0.000  0.00  0.00    +0.053 A 
ATOM      8  C   UNL     1      -2.938  -4.079   0.000  0.00  0.00    +0.162 A 
ATOM     11  C   UNL     1      -1.724  -3.198   0.000  0.00  0.00    +0.161 A 
ATOM     14  C   UNL     1      -1.881  -1.706   0.000  0.00  0.00    +0.049 A 
ATOM     15  C   UNL     1      -3.251  -1.096   0.000  0.00  0.00    +0.008 A 
BRANCH   8   9
ATOM      9  O   UNL     1      -2.781  -5.571   0.000  0.00  0.00    -0.491 OA
ATOM     10  C   UNL     1      -1.411  -6.181   0.000  0.00  0.00    +0.277 C 
ENDBRANCH   8   9
BRANCH  11  12
ATOM     12  O   UNL     1      -0.354  -3.808   0.000  0.00  0.00    -0.491 OA
ATOM     13  C   UNL     1      -0.197  -5.300   0.000  0.00  0.00    +0.277 C 
ENDBRANCH  11  12
ENDBRANCH   5   6
TORSDOF 4