REMARK  Name = 70845
REMARK  23 active torsions:
REMARK  status: ('A' for Active; 'I' for Inactive)
REMARK    1  A    between atoms: O_7  and  C_28
REMARK    2  A    between atoms: O_7  and  C_31
REMARK    3  A    between atoms: C_8  and  O_40
REMARK    4  A    between atoms: C_9  and  N_36
REMARK    5  A    between atoms: C_11  and  O_39
REMARK    6  A    between atoms: C_12  and  C_41
REMARK    7  A    between atoms: C_14  and  C_52
REMARK    8  A    between atoms: C_16  and  C_56
REMARK    9  A    between atoms: C_16  and  O_57
REMARK   10  A    between atoms: C_27  and  O_47
REMARK   11  A    between atoms: C_30  and  O_42
REMARK   12  A    between atoms: C_32  and  O_50
REMARK   13  A    between atoms: C_33  and  O_45
REMARK   14  A    between atoms: C_33  and  C_48
REMARK   15  A    between atoms: C_34  and  C_49
REMARK   16  A    between atoms: C_35  and  O_43
REMARK   17  A    between atoms: N_36  and  C_37
REMARK   18  A    between atoms: N_36  and  C_38
REMARK   19  A    between atoms: O_43  and  C_44
REMARK   20  A    between atoms: O_45  and  C_46
REMARK   21  A    between atoms: O_50  and  C_51
REMARK   22  A    between atoms: C_52  and  O_54
REMARK   23  A    between atoms: O_54  and  C_55
REMARK                            x       y       z     vdW  Elec       q    Type
REMARK                         _______ _______ _______ _____ _____    ______ ____
ROOT
ATOM      1  O   UNL     1       6.221   1.775   0.000  0.00  0.00    -0.326 OA
ATOM      2  C   UNL     1       6.221   0.275   0.000  0.00  0.00    +0.126 C 
ATOM      3  C   UNL     1       5.471  -1.025   0.000  0.00  0.00    +0.050 C 
ATOM      4  C   UNL     1       7.520  -0.475   0.000  0.00  0.00    +0.033 A 
ATOM      5  C   UNL     1       7.520  -1.976   0.000  0.00  0.00    +0.056 A 
ATOM      6  C   UNL     1       8.819  -2.725   0.000  0.00  0.00    +0.129 A 
ATOM      9  C   UNL     1      10.118  -1.976   0.000  0.00  0.00    +0.078 A 
ATOM     10  C   UNL     1      11.417  -2.725   0.000  0.00  0.00    +0.202 C 
ATOM     11  C   UNL     1      12.716  -1.976   0.000  0.00  0.00    +0.075 A 
ATOM     12  C   UNL     1      14.015  -2.725   0.000  0.00  0.00    +0.134 A 
ATOM     15  C   UNL     1      15.314  -1.976   0.000  0.00  0.00    +0.028 A 
ATOM     16  C   UNL     1      16.613  -2.725   0.000  0.00  0.00    +0.158 C 
ATOM     17  C   UNL     1      17.912  -1.976   0.000  0.00  0.00    +0.072 C 
ATOM     18  C   UNL     1      17.912  -0.475   0.000  0.00  0.00    +0.083 C 
ATOM     21  C   UNL     1      18.425   0.934   0.000  0.00  0.00    +0.042 C 
ATOM     22  C   UNL     1      16.613   0.275   0.000  0.00  0.00    +0.159 C 
ATOM     42  C   UNL     1      15.314  -0.475   0.000  0.00  0.00    -0.021 A 
ATOM     43  C   UNL     1      14.015   0.275   0.000  0.00  0.00    +0.017 A 
ATOM     44  C   UNL     1      12.716  -0.475   0.000  0.00  0.00    +0.037 A 
ATOM     45  C   UNL     1      11.417   0.275   0.000  0.00  0.00    +0.198 C 
ATOM     46  O   UNL     1      11.417   1.775   0.000  0.00  0.00    -0.286 OA
ATOM     47  O   UNL     1      11.417  -4.226   0.000  0.00  0.00    -0.286 OA
ATOM     48  C   UNL     1      10.118  -0.475   0.000  0.00  0.00    +0.079 A 
ATOM     49  C   UNL     1       8.819   0.275   0.000  0.00  0.00    +0.142 A 
ATOM     50  O   UNL     1       8.819   1.775   0.000  0.00  0.00    -0.460 OA
ATOM     51  C   UNL     1       4.922   1.025   0.000  0.00  0.00    +0.170 C 
ATOM     54  C   UNL     1       4.922   2.525   0.000  0.00  0.00    +0.123 C 
ATOM     58  C   UNL     1       6.221   3.275   0.000  0.00  0.00    +0.202 C 
ATOM     61  C   UNL     1       7.520   2.525   0.000  0.00  0.00    +0.339 C 
ENDROOT
BRANCH  54  55
ATOM     55  N   UNL     1       3.623   3.275   0.000  0.00  0.00    -0.301 NA
ATOM     56  C   UNL     1       3.623   4.774   0.000  0.00  0.00    +0.105 C 
ATOM     57  C   UNL     1       2.324   2.525   0.000  0.00  0.00    +0.105 C 
ENDBRANCH  54  55
BRANCH   6   7
ATOM      7  O   UNL     1       8.819  -4.226   0.000  0.00  0.00    -0.506 OA
ATOM      8  H   UNL     1       8.007  -4.694   0.000  0.00  0.00    +0.292 HD
ENDBRANCH   6   7
BRANCH  12  13
ATOM     13  O   UNL     1      14.015  -4.226   0.000  0.00  0.00    -0.506 OA
ATOM     14  H   UNL     1      13.203  -4.694   0.000  0.00  0.00    +0.292 HD
ENDBRANCH  12  13
BRANCH  18  19
ATOM     19  O   UNL     1      19.389  -0.736   0.000  0.00  0.00    -0.388 OA
ATOM     20  H   UNL     1      19.721  -1.648   0.000  0.00  0.00    +0.210 HD
ENDBRANCH  18  19
BRANCH  22  23
ATOM     23  C   UNL     1      16.613   1.775   0.000  0.00  0.00    +0.317 C 
ATOM     26  O   UNL     1      15.314   2.525   0.000  0.00  0.00    -0.250 OA
BRANCH  23  24
ATOM     24  O   UNL     1      17.912   2.525   0.000  0.00  0.00    -0.467 OA
ATOM     25  C   UNL     1      19.211   1.775   0.000  0.00  0.00    +0.280 C 
ENDBRANCH  23  24
ENDBRANCH  22  23
BRANCH  51  52
ATOM     52  O   UNL     1       3.623   0.275   0.000  0.00  0.00    -0.387 OA
ATOM     53  H   UNL     1       2.783   0.759   0.000  0.00  0.00    +0.210 HD
ENDBRANCH  51  52
BRANCH  58  59
ATOM     59  O   UNL     1       6.221   4.774   0.000  0.00  0.00    -0.384 OA
ATOM     60  H   UNL     1       7.061   5.260   0.000  0.00  0.00    +0.210 HD
ENDBRANCH  58  59
BRANCH  16  27
ATOM     27  O   UNL     1      16.613  -4.226   0.000  0.00  0.00    -0.341 OA
BRANCH  27  28
ATOM     28  C   UNL     1      17.912  -4.976   0.000  0.00  0.00    +0.283 C 
ATOM     29  C   UNL     1      19.211  -4.226   0.000  0.00  0.00    +0.208 C 
ATOM     32  C   UNL     1      20.510  -4.976   0.000  0.00  0.00    +0.125 C 
ATOM     33  C   UNL     1      19.211  -5.726   0.000  0.00  0.00    +0.047 C 
ATOM     36  C   UNL     1      20.510  -6.476   0.000  0.00  0.00    +0.180 C 
ATOM     39  C   UNL     1      19.211  -7.226   0.000  0.00  0.00    +0.150 C 
ATOM     40  C   UNL     1      19.211  -5.726   0.000  0.00  0.00    +0.041 C 
ATOM     41  O   UNL     1      17.912  -6.476   0.000  0.00  0.00    -0.343 OA
BRANCH  29  30
ATOM     30  O   UNL     1      19.211  -2.725   0.000  0.00  0.00    -0.372 OA
ATOM     31  C   UNL     1      20.510  -1.976   0.000  0.00  0.00    +0.194 C 
ENDBRANCH  29  30
BRANCH  32  34
ATOM     34  O   UNL     1      21.809  -4.226   0.000  0.00  0.00    -0.371 OA
ATOM     35  C   UNL     1      23.108  -4.976   0.000  0.00  0.00    +0.195 C 
ENDBRANCH  32  34
BRANCH  36  37
ATOM     37  O   UNL     1      21.809  -7.226   0.000  0.00  0.00    -0.374 OA
ATOM     38  C   UNL     1      23.108  -6.476   0.000  0.00  0.00    +0.194 C 
ENDBRANCH  36  37
ENDBRANCH  27  28
ENDBRANCH  16  27
TORSDOF 13