REMARK  Name = 622627
REMARK  4 active torsions:
REMARK  status: ('A' for Active; 'I' for Inactive)
REMARK    1  A    between atoms: C_2  and  C_15
REMARK    2  A    between atoms: C_4  and  N_12
REMARK    3  A    between atoms: C_5  and  C_7
REMARK    4  A    between atoms: C_6  and  N_9
REMARK                            x       y       z     vdW  Elec       q    Type
REMARK                         _______ _______ _______ _____ _____    ______ ____
ROOT
ATOM      1  C   UNL     1      -4.162  -6.269   0.000  0.00  0.00    +0.097 A 
ATOM      2  C   UNL     1      -2.863  -5.519   0.000  0.00  0.00    +0.284 A 
ATOM      6  C   UNL     1      -1.564  -6.269   0.000  0.00  0.00    +0.121 A 
ATOM      9  C   UNL     1      -1.564  -7.769   0.000  0.00  0.00    +0.284 A 
ATOM     13  C   UNL     1      -2.863  -8.519   0.000  0.00  0.00    +0.097 A 
ATOM     14  C   UNL     1      -4.162  -7.769   0.000  0.00  0.00    +0.068 A 
ENDROOT
BRANCH  14  15
ATOM     15  C   UNL     1      -5.461  -8.519   0.000  0.00  0.00    +0.418 C 
ATOM     16  F   UNL     1      -4.711  -9.818   0.000  0.00  0.00    -0.166 F 
ATOM     17  F   UNL     1      -6.760  -9.269   0.000  0.00  0.00    -0.166 F 
ATOM     18  F   UNL     1      -6.211  -7.220   0.000  0.00  0.00    -0.166 F 
ENDBRANCH  14  15
BRANCH   2   3
ATOM      3  N   UNL     1      -2.863  -4.019   0.000  0.00  0.00    +0.080 N 
ATOM      4  O   UNL     1      -1.564  -3.269   0.000  0.00  0.00    +0.041 OA
ATOM      5  O   UNL     1      -4.162  -3.269   0.000  0.00  0.00    -0.576 OA
ENDBRANCH   2   3
BRANCH   9  10
ATOM     10  N   UNL     1      -0.265  -8.519   0.000  0.00  0.00    +0.080 N 
ATOM     11  O   UNL     1      -0.265 -10.019   0.000  0.00  0.00    +0.041 OA
ATOM     12  O   UNL     1       1.034  -7.769   0.000  0.00  0.00    -0.576 OA
ENDBRANCH   9  10
BRANCH   6   7
ATOM      7  C   UNL     1      -0.265  -5.519   0.000  0.00  0.00    +0.157 C 
ATOM      8 CL   UNL     1       1.034  -6.269   0.000  0.00  0.00    -0.120 Cl
ENDBRANCH   6   7
TORSDOF 4