REMARK  Name = 757
REMARK  10 active torsions:
REMARK  status: ('A' for Active; 'I' for Inactive)
REMARK    1  A    between atoms: C_3  and  O_27
REMARK    2  A    between atoms: C_4  and  O_29
REMARK    3  A    between atoms: C_5  and  O_21
REMARK    4  A    between atoms: C_14  and  O_19
REMARK    5  A    between atoms: C_17  and  N_23
REMARK    6  A    between atoms: O_19  and  C_20
REMARK    7  A    between atoms: O_21  and  C_22
REMARK    8  A    between atoms: C_24  and  C_26
REMARK    9  A    between atoms: O_27  and  C_28
REMARK   10  A    between atoms: O_29  and  C_30
REMARK                            x       y       z     vdW  Elec       q    Type
REMARK                         _______ _______ _______ _____ _____    ______ ____
ROOT
ATOM      1  O   UNL     1      -4.243  -2.618   0.000  0.00  0.00    -0.284 OA
ATOM      2  C   UNL     1      -3.153  -1.587   0.000  0.00  0.00    +0.221 A 
ATOM      3  C   UNL     1      -1.752  -2.122   0.000  0.00  0.00    +0.060 A 
ATOM      4  C   UNL     1      -0.460  -1.359   0.000  0.00  0.00    -0.016 A 
ATOM      5  C   UNL     1       0.571  -2.449   0.000  0.00  0.00    +0.104 C 
ATOM     11  C   UNL     1       2.066  -2.322   0.000  0.00  0.00    +0.032 C 
ATOM     12  C   UNL     1       2.899  -1.075   0.000  0.00  0.00    +0.038 C 
ATOM     13  C   UNL     1       2.443   0.354   0.000  0.00  0.00    -0.032 A 
ATOM     14  C   UNL     1       1.041   0.889   0.000  0.00  0.00    +0.031 A 
ATOM     15  C   UNL     1       0.803   2.370   0.000  0.00  0.00    +0.173 A 
ATOM     18  C   UNL     1       1.967   3.316   0.000  0.00  0.00    +0.204 A 
ATOM     21  C   UNL     1       3.368   2.782   0.000  0.00  0.00    +0.165 A 
ATOM     24  C   UNL     1       3.606   1.301   0.000  0.00  0.00    +0.054 A 
ATOM     25  C   UNL     1      -0.251   0.126   0.000  0.00  0.00    -0.009 A 
ATOM     26  C   UNL     1      -1.282   1.216   0.000  0.00  0.00    +0.012 A 
ATOM     27  C   UNL     1      -2.776   1.089   0.000  0.00  0.00    +0.050 A 
ATOM     28  C   UNL     1      -3.609  -0.158   0.000  0.00  0.00    +0.167 A 
ENDROOT
BRANCH   5   6
ATOM      6  N   UNL     1       1.027  -3.878   0.000  0.00  0.00    -0.309 N 
ATOM      7  H   UNL     1       1.989  -4.088   0.000  0.00  0.00    +0.149 HD
ATOM      8  C   UNL     1       0.017  -4.987   0.000  0.00  0.00    +0.210 C 
ATOM      9  C   UNL     1       0.473  -6.416   0.000  0.00  0.00    +0.109 C 
ATOM     10  O   UNL     1      -1.448  -4.668   0.000  0.00  0.00    -0.276 OA
ENDBRANCH   5   6
BRANCH  15  16
ATOM     16  O   UNL     1      -0.598   2.904   0.000  0.00  0.00    -0.491 OA
ATOM     17  C   UNL     1      -1.762   1.958   0.000  0.00  0.00    +0.277 C 
ENDBRANCH  15  16
BRANCH  18  19
ATOM     19  O   UNL     1       1.729   4.797   0.000  0.00  0.00    -0.488 OA
ATOM     20  C   UNL     1       0.328   5.332   0.000  0.00  0.00    +0.277 C 
ENDBRANCH  18  19
BRANCH  21  22
ATOM     22  O   UNL     1       4.532   3.728   0.000  0.00  0.00    -0.491 OA
ATOM     23  C   UNL     1       5.934   3.194   0.000  0.00  0.00    +0.277 C 
ENDBRANCH  21  22
BRANCH  28  29
ATOM     29  O   UNL     1      -5.094   0.051   0.000  0.00  0.00    -0.491 OA
ATOM     30  C   UNL     1      -5.656   1.442   0.000  0.00  0.00    +0.277 C 
ENDBRANCH  28  29
TORSDOF 5