REMARK  Name = 630374
REMARK  5 active torsions:
REMARK  status: ('A' for Active; 'I' for Inactive)
REMARK    1  A    between atoms: N_8  and  O_12
REMARK    2  A    between atoms: O_12  and  C_13
REMARK    3  A    between atoms: C_13  and  C_15
REMARK    4  A    between atoms: C_15  and  C_16
REMARK    5  A    between atoms: C_16  and  C_19
REMARK                            x       y       z     vdW  Elec       q    Type
REMARK                         _______ _______ _______ _____ _____    ______ ____
ROOT
ATOM      1  C   UNL     1      -0.750  -3.000   0.000  0.00  0.00    +0.001 A 
ATOM      2  C   UNL     1      -2.049  -3.750   0.000  0.00  0.00    +0.015 A 
ATOM      3  C   UNL     1      -3.348  -3.000   0.000  0.00  0.00    +0.071 A 
ATOM      4  C   UNL     1      -4.647  -3.750   0.000  0.00  0.00    +0.315 A 
ATOM      5  O   UNL     1      -4.647  -5.250   0.000  0.00  0.00    -0.262 OA
ATOM      6  N   UNL     1      -5.946  -3.000   0.000  0.00  0.00    -0.028 N 
ATOM     18  N   UNL     1      -5.946  -1.500   0.000  0.00  0.00    -0.025 NA
ATOM     19  N   UNL     1      -4.647  -0.750   0.000  0.00  0.00    -0.128 NA
ATOM     20  C   UNL     1      -3.348  -1.500   0.000  0.00  0.00    +0.100 A 
ATOM     21  C   UNL     1      -2.049  -0.750   0.000  0.00  0.00    +0.030 A 
ATOM     22  C   UNL     1      -0.750  -1.500   0.000  0.00  0.00    +0.002 A 
ENDROOT
BRANCH   6   7
ATOM      7  O   UNL     1      -7.245  -3.750   0.000  0.00  0.00    -0.313 OA
BRANCH   7   8
ATOM      8  C   UNL     1      -8.544  -3.000   0.000  0.00  0.00    +0.336 C 
ATOM     17  O   UNL     1      -8.544  -1.500   0.000  0.00  0.00    -0.248 OA
BRANCH   8   9
ATOM      9  C   UNL     1      -9.843  -3.750   0.000  0.00  0.00    +0.128 C 
BRANCH   9  10
ATOM     10  C   UNL     1     -11.142  -3.000   0.000  0.00  0.00    +0.046 C 
BRANCH  10  11
ATOM     11  C   UNL     1     -12.441  -3.750   0.000  0.00  0.00    -0.047 A 
ATOM     12  C   UNL     1     -13.740  -3.000   0.000  0.00  0.00    +0.003 A 
ATOM     13  C   UNL     1     -15.039  -3.750   0.000  0.00  0.00    +0.000 A 
ATOM     14  C   UNL     1     -15.039  -5.250   0.000  0.00  0.00    +0.000 A 
ATOM     15  C   UNL     1     -13.740  -6.000   0.000  0.00  0.00    +0.000 A 
ATOM     16  C   UNL     1     -12.441  -5.250   0.000  0.00  0.00    +0.003 A 
ENDBRANCH  10  11
ENDBRANCH   9  10
ENDBRANCH   8   9
ENDBRANCH   7   8
ENDBRANCH   6   7
TORSDOF 5