REMARK  Name = 615593
REMARK  35 active torsions:
REMARK  status: ('A' for Active; 'I' for Inactive)
REMARK    1  A    between atoms: PT_1  and  N_2
REMARK    2  A    between atoms: PT_1  and  N_10
REMARK    3  A    between atoms: PT_1  and  O_74
REMARK    4  A    between atoms: PT_1  and  O_78
REMARK    5  A    between atoms: C_3  and  C_68
REMARK    6  A    between atoms: C_4  and  C_5
REMARK    7  A    between atoms: C_4  and  O_72
REMARK    8  A    between atoms: C_5  and  C_6
REMARK    9  A    between atoms: C_5  and  C_8
REMARK   10  A    between atoms: C_6  and  C_7
REMARK   11  A    between atoms: C_8  and  C_9
REMARK   12  A    between atoms: C_11  and  C_12
REMARK   13  A    between atoms: C_12  and  C_14
REMARK   14  A    between atoms: C_14  and  O_73
REMARK   15  A    between atoms: C_15  and  C_16
REMARK   16  A    between atoms: C_15  and  O_73
REMARK   17  A    between atoms: C_16  and  C_17
REMARK   18  A    between atoms: C_16  and  C_19
REMARK   19  A    between atoms: C_17  and  C_18
REMARK   20  A    between atoms: C_19  and  C_20
REMARK   21  A    between atoms: C_28  and  S_29
REMARK   22  A    between atoms: C_34  and  N_37
REMARK   23  A    between atoms: C_35  and  N_36
REMARK   24  A    between atoms: N_38  and  C_39
REMARK   25  A    between atoms: C_42  and  C_45
REMARK   26  A    between atoms: C_48  and  N_51
REMARK   27  A    between atoms: N_52  and  C_53
REMARK   28  A    between atoms: C_54  and  N_55
REMARK   29  A    between atoms: C_58  and  S_60
REMARK   30  A    between atoms: C_68  and  C_70
REMARK   31  A    between atoms: C_70  and  O_72
REMARK   32  A    between atoms: S_75  and  C_76
REMARK   33  A    between atoms: S_75  and  C_77
REMARK   34  A    between atoms: S_79  and  C_80
REMARK   35  A    between atoms: S_79  and  C_81
REMARK                            x       y       z     vdW  Elec       q    Type
REMARK                         _______ _______ _______ _____ _____    ______ ____
ROOT
ATOM      9  C   UNL     1     -14.038  -8.544   0.000  0.00  0.00    +0.000 A 
ATOM     10  C   UNL     1     -14.788  -7.245   0.000  0.00  0.00    +0.000 A 
ATOM     11  C   UNL     1     -16.288  -7.245   0.000  0.00  0.00    +0.000 A 
ATOM     12  C   UNL     1     -17.038  -8.544   0.000  0.00  0.00    +0.000 A 
ATOM     38  C   UNL     1     -16.288  -9.843   0.000  0.00  0.00    +0.000 A 
ATOM     39  C   UNL     1     -14.788  -9.843   0.000  0.00  0.00    +0.000 A 
ENDROOT
BRANCH  12  13
ATOM     13  C   UNL     1     -19.513  -8.544   0.000  0.00  0.00    +0.000 A 
ATOM     14  C   UNL     1     -20.263  -7.245   0.000  0.00  0.00    +0.000 A 
ATOM     15  C   UNL     1     -21.764  -7.245   0.000  0.00  0.00    +0.000 A 
ATOM     16  C   UNL     1     -22.514  -8.544   0.000  0.00  0.00    +0.000 A 
ATOM     36  C   UNL     1     -21.764  -9.843   0.000  0.00  0.00    +0.000 A 
ATOM     37  C   UNL     1     -20.263  -9.843   0.000  0.00  0.00    +0.000 A 
BRANCH  16  17
ATOM     17  N   UNL     1     -24.014  -8.544   0.000  0.00  0.00    +0.000 NA
ATOM     18  N   UNL     1     -24.763  -7.245   0.000  0.00  0.00    +0.000 NA
BRANCH  18  19
ATOM     19  C   UNL     1     -24.013  -5.946   0.000  0.00  0.00    +0.000 A 
ATOM     20  C   UNL     1     -22.514  -5.946   0.000  0.00  0.00    +0.000 A 
ATOM     21  C   UNL     1     -21.764  -4.647   0.000  0.00  0.00    +0.000 A 
ATOM     26  C   UNL     1     -22.514  -3.348   0.000  0.00  0.00    +0.000 A 
ATOM     27  C   UNL     1     -21.764  -2.049   0.000  0.00  0.00    +0.000 A 
ATOM     28  C   UNL     1     -22.514  -0.750   0.000  0.00  0.00    +0.000 A 
ATOM     29  C   UNL     1     -24.014  -0.750   0.000  0.00  0.00    +0.000 A 
ATOM     30  C   UNL     1     -24.764  -2.049   0.000  0.00  0.00    +0.000 A 
ATOM     31  C   UNL     1     -24.014  -3.348   0.000  0.00  0.00    +0.000 A 
ATOM     32  C   UNL     1     -24.764  -4.647   0.000  0.00  0.00    +0.000 A 
BRANCH  21  22
ATOM     22  S   UNL     1     -20.263  -4.647   0.000  0.00  0.00    +0.000 S 
ATOM     23  O   UNL     1     -18.763  -4.647   0.000  0.00  0.00    +0.000 OA
ATOM     24  O   UNL     1     -20.264  -3.147   0.000  0.00  0.00    +0.000 OA
ATOM     25  O   UNL     1     -20.263  -6.147   0.000  0.00  0.00    -1.000 OA
ENDBRANCH  21  22
BRANCH  32  33
ATOM     33  N   UNL     1     -26.264  -4.647   0.000  0.00  0.00    +0.000 N 
ATOM     34  H   UNL     1     -26.756  -5.500   0.000  0.00  0.00    +0.000 HD
ATOM     35  H   UNL     1     -26.756  -3.794   0.000  0.00  0.00    +0.000 HD
ENDBRANCH  32  33
ENDBRANCH  18  19
ENDBRANCH  16  17
ENDBRANCH  12  13
BRANCH   9   8
ATOM      7  N   UNL     1     -11.788  -7.245   0.000  0.00  0.00    +0.000 NA
ATOM      8  N   UNL     1     -12.538  -8.544   0.000  0.00  0.00    +0.000 NA
BRANCH   7   6
ATOM      1  C   UNL     1     -14.038  -0.750   0.000  0.00  0.00    +0.000 A 
ATOM      2  C   UNL     1     -14.788  -2.049   0.000  0.00  0.00    +0.000 A 
ATOM      3  C   UNL     1     -14.038  -3.348   0.000  0.00  0.00    +0.000 A 
ATOM      4  C   UNL     1     -14.788  -4.647   0.000  0.00  0.00    +0.000 A 
ATOM      5  C   UNL     1     -14.038  -5.946   0.000  0.00  0.00    +0.000 A 
ATOM      6  C   UNL     1     -12.538  -5.946   0.000  0.00  0.00    +0.000 A 
ATOM     40  C   UNL     1     -11.788  -4.647   0.000  0.00  0.00    +0.000 A 
ATOM     48  C   UNL     1     -12.538  -3.348   0.000  0.00  0.00    +0.000 A 
ATOM     49  C   UNL     1     -11.788  -2.049   0.000  0.00  0.00    +0.000 A 
ATOM     50  C   UNL     1     -12.538  -0.750   0.000  0.00  0.00    +0.000 A 
BRANCH   4  44
ATOM     44  S   UNL     1     -16.288  -4.647   0.000  0.00  0.00    +0.000 S 
ATOM     45  O   UNL     1     -17.788  -4.647   0.000  0.00  0.00    +0.000 OA
ATOM     46  O   UNL     1     -16.288  -6.147   0.000  0.00  0.00    +0.000 OA
ATOM     47  O   UNL     1     -16.288  -3.147   0.000  0.00  0.00    -1.000 OA
ENDBRANCH   4  44
BRANCH  40  41
ATOM     41  N   UNL     1     -10.288  -4.647   0.000  0.00  0.00    +0.000 N 
ATOM     42  H   UNL     1      -9.796  -3.794   0.000  0.00  0.00    +0.000 HD
ATOM     43  H   UNL     1      -9.796  -5.500   0.000  0.00  0.00    +0.000 HD
ENDBRANCH  40  41
ENDBRANCH   7   6
ENDBRANCH   9   8
TORSDOF 9