REMARK  Name = 616232
REMARK  9 active torsions:
REMARK  status: ('A' for Active; 'I' for Inactive)
REMARK    1  A    between atoms: C_2  and  C_3
REMARK    2  A    between atoms: C_3  and  O_4
REMARK    3  A    between atoms: C_3  and  C_5
REMARK    4  A    between atoms: C_5  and  O_6
REMARK    5  A    between atoms: C_5  and  C_7
REMARK    6  A    between atoms: C_7  and  O_8
REMARK    7  A    between atoms: C_7  and  C_9
REMARK    8  A    between atoms: C_9  and  O_10
REMARK    9  A    between atoms: C_9  and  C_11
REMARK                            x       y       z     vdW  Elec       q    Type
REMARK                         _______ _______ _______ _____ _____    ______ ____
ROOT
ATOM      4  C   UNL     1       2.250  -4.500   0.000  0.00  0.00    +0.175 C 
ENDROOT
BRANCH   4  13
ATOM     13  O   UNL     1       0.750  -4.500   0.000  0.00  0.00    -0.387 OA
ATOM     14  H   UNL     1       0.265  -3.660   0.000  0.00  0.00    +0.210 HD
ENDBRANCH   4  13
BRANCH   4   3
ATOM      3  C   UNL     1       2.250  -3.000   0.000  0.00  0.00    +0.156 C 
BRANCH   3   2
ATOM      1 BR   UNL     1       3.549  -0.750   0.000  0.00  0.00    -0.089 Br
ATOM      2  C   UNL     1       2.250  -1.500   0.000  0.00  0.00    +0.113 C 
ENDBRANCH   3   2
BRANCH   3  15
ATOM     15  O   UNL     1       3.750  -3.000   0.000  0.00  0.00    -0.388 OA
ATOM     16  H   UNL     1       4.235  -3.840   0.000  0.00  0.00    +0.210 HD
ENDBRANCH   3  15
ENDBRANCH   4   3
BRANCH   4   5
ATOM      5  C   UNL     1       2.250  -6.000   0.000  0.00  0.00    +0.175 C 
BRANCH   5  11
ATOM     11  O   UNL     1       0.750  -6.000   0.000  0.00  0.00    -0.387 OA
ATOM     12  H   UNL     1       0.265  -5.160   0.000  0.00  0.00    +0.210 HD
ENDBRANCH   5  11
BRANCH   5   6
ATOM      6  C   UNL     1       2.250  -7.500   0.000  0.00  0.00    +0.156 C 
BRANCH   6   7
ATOM      7  C   UNL     1       2.250  -9.000   0.000  0.00  0.00    +0.113 C 
ATOM      8 BR   UNL     1       3.549  -9.750   0.000  0.00  0.00    -0.089 Br
ENDBRANCH   6   7
BRANCH   6   9
ATOM      9  O   UNL     1       3.750  -7.500   0.000  0.00  0.00    -0.388 OA
ATOM     10  H   UNL     1       4.235  -8.340   0.000  0.00  0.00    +0.210 HD
ENDBRANCH   6   9
ENDBRANCH   5   6
ENDBRANCH   4   5
TORSDOF 9