REMARK  Name = 681744
REMARK  15 active torsions:
REMARK  status: ('A' for Active; 'I' for Inactive)
REMARK    1  A    between atoms: N_1  and  C_3
REMARK    2  A    between atoms: N_1  and  C_27
REMARK    3  A    between atoms: N_2  and  C_8
REMARK    4  A    between atoms: N_2  and  C_9
REMARK    5  A    between atoms: C_3  and  C_4
REMARK    6  A    between atoms: C_4  and  C_5
REMARK    7  A    between atoms: C_5  and  C_6
REMARK    8  A    between atoms: C_6  and  C_7
REMARK    9  A    between atoms: C_7  and  C_8
REMARK   10  A    between atoms: C_9  and  C_18
REMARK   11  A    between atoms: C_9  and  C_24
REMARK   12  A    between atoms: C_10  and  C_12
REMARK   13  A    between atoms: C_26  and  C_29
REMARK   14  A    between atoms: C_27  and  C_35
REMARK   15  A    between atoms: C_27  and  C_37
REMARK                            x       y       z     vdW  Elec       q    Type
REMARK                         _______ _______ _______ _____ _____    ______ ____
ROOT
ATOM     21  C   UNL     1      -9.701   2.801   0.000  0.00  0.00    +0.002 C 
ENDROOT
BRANCH  21  20
ATOM     20  C   UNL     1     -11.201   2.774   0.000  0.00  0.00    +0.019 C 
BRANCH  20  19
ATOM     19  C   UNL     1     -11.974   4.060   0.000  0.00  0.00    +0.110 C 
BRANCH  19   1
ATOM      1  N   UNL     1     -13.474   4.033   0.000  0.00  0.00    -0.278 N 
ATOM     11  C   UNL     1     -14.246   5.318   0.000  0.00  0.00    +0.248 C 
ATOM     18  O   UNL     1     -15.746   5.292   0.000  0.00  0.00    -0.270 OA
BRANCH  11  12
ATOM     12  C   UNL     1     -13.520   6.631   0.000  0.00  0.00    +0.037 A 
ATOM     13  C   UNL     1     -14.293   7.916   0.000  0.00  0.00    +0.013 A 
ATOM     14  C   UNL     1     -13.566   9.228   0.000  0.00  0.00    +0.001 A 
ATOM     15  C   UNL     1     -12.066   9.255   0.000  0.00  0.00    +0.000 A 
ATOM     16  C   UNL     1     -11.293   7.970   0.000  0.00  0.00    +0.001 A 
ATOM     17  C   UNL     1     -12.020   6.657   0.000  0.00  0.00    +0.013 A 
ENDBRANCH  11  12
BRANCH   1   2
ATOM      2  C   UNL     1     -14.200   2.721   0.000  0.00  0.00    +0.210 C 
BRANCH   2   3
ATOM      3  C   UNL     1     -15.700   2.694   0.000  0.00  0.00    -0.013 A 
ATOM      4  C   UNL     1     -16.473   3.979   0.000  0.00  0.00    +0.006 A 
ATOM      5  C   UNL     1     -17.973   3.953   0.000  0.00  0.00    +0.000 A 
ATOM      6  C   UNL     1     -18.700   2.641   0.000  0.00  0.00    +0.000 A 
ATOM      7  C   UNL     1     -17.927   1.355   0.000  0.00  0.00    +0.000 A 
ATOM      8  C   UNL     1     -16.427   1.382   0.000  0.00  0.00    +0.006 A 
ENDBRANCH   2   3
BRANCH   2   9
ATOM      9  C   UNL     1     -13.427   1.435   0.000  0.00  0.00    +0.090 C 
ATOM     10  N   UNL     1     -12.654   0.150   0.000  0.00  0.00    -0.194 NA
ENDBRANCH   2   9
ENDBRANCH   1   2
ENDBRANCH  19   1
ENDBRANCH  20  19
ENDBRANCH  21  20
BRANCH  21  22
ATOM     22  C   UNL     1      -8.928   1.515   0.000  0.00  0.00    +0.002 C 
BRANCH  22  23
ATOM     23  C   UNL     1      -7.428   1.542   0.000  0.00  0.00    +0.019 C 
BRANCH  23  24
ATOM     24  C   UNL     1      -6.655   0.257   0.000  0.00  0.00    +0.110 C 
BRANCH  24  25
ATOM     25  N   UNL     1      -7.382  -1.056   0.000  0.00  0.00    -0.278 N 
ATOM     35  C   UNL     1      -8.882  -1.082   0.000  0.00  0.00    +0.248 C 
ATOM     42  O   UNL     1      -9.655   0.203   0.000  0.00  0.00    -0.270 OA
BRANCH  35  36
ATOM     36  C   UNL     1      -9.608  -2.394   0.000  0.00  0.00    +0.037 A 
ATOM     37  C   UNL     1      -8.835  -3.680   0.000  0.00  0.00    +0.013 A 
ATOM     38  C   UNL     1      -9.562  -4.992   0.000  0.00  0.00    +0.001 A 
ATOM     39  C   UNL     1     -11.062  -5.019   0.000  0.00  0.00    +0.000 A 
ATOM     40  C   UNL     1     -11.835  -3.733   0.000  0.00  0.00    +0.001 A 
ATOM     41  C   UNL     1     -11.108  -2.421   0.000  0.00  0.00    +0.013 A 
ENDBRANCH  35  36
BRANCH  25  26
ATOM     26  C   UNL     1      -6.609  -2.341   0.000  0.00  0.00    +0.210 C 
BRANCH  26  29
ATOM     29  C   UNL     1      -5.109  -2.314   0.000  0.00  0.00    -0.013 A 
ATOM     30  C   UNL     1      -4.336  -3.600   0.000  0.00  0.00    +0.006 A 
ATOM     31  C   UNL     1      -2.836  -3.573   0.000  0.00  0.00    +0.000 A 
ATOM     32  C   UNL     1      -2.110  -2.261   0.000  0.00  0.00    +0.000 A 
ATOM     33  C   UNL     1      -2.883  -0.976   0.000  0.00  0.00    +0.000 A 
ATOM     34  C   UNL     1      -4.382  -1.002   0.000  0.00  0.00    +0.006 A 
ENDBRANCH  26  29
BRANCH  26  27
ATOM     27  C   UNL     1      -7.336  -3.653   0.000  0.00  0.00    +0.090 C 
ATOM     28  N   UNL     1      -8.062  -4.965   0.000  0.00  0.00    -0.194 NA
ENDBRANCH  26  27
ENDBRANCH  25  26
ENDBRANCH  24  25
ENDBRANCH  23  24
ENDBRANCH  22  23
ENDBRANCH  21  22
TORSDOF 15