REMARK  Name = 658285
REMARK  4 active torsions:
REMARK  status: ('A' for Active; 'I' for Inactive)
REMARK    1  A    between atoms: C_3  and  C_16
REMARK    2  A    between atoms: C_10  and  C_18
REMARK    3  A    between atoms: C_11  and  C_19
REMARK    4  A    between atoms: C_19  and  C_21
REMARK                            x       y       z     vdW  Elec       q    Type
REMARK                         _______ _______ _______ _____ _____    ______ ____
ROOT
ATOM      7  C   UNL     1      -2.049   3.750   0.000  0.00  0.00    +0.035 C 
ATOM      8  C   UNL     1      -2.049   5.250   0.000  0.00  0.00    +0.135 C 
ATOM      9  C   UNL     1      -3.263   6.132   0.000  0.00  0.00    +0.435 C 
ATOM     10  O   UNL     1      -4.689   5.668   0.000  0.00  0.00    -0.212 OA
ATOM     11  N   UNL     1      -2.799   7.558   0.000  0.00  0.00    -0.108 N 
ATOM     12  C   UNL     1      -3.263   8.985   0.000  0.00  0.00    +0.209 A 
ATOM     13  C   UNL     1      -4.689   9.448   0.000  0.00  0.00    +0.124 C 
ATOM     14  C   UNL     1      -2.049   9.867   0.000  0.00  0.00    +0.128 A 
ATOM     18  S   UNL     1      -0.836   8.985   0.000  0.00  0.00    -0.003 S 
ATOM     19  C   UNL     1      -1.299   7.558   0.000  0.00  0.00    +0.296 A 
ATOM     20  S   UNL     1      -0.836   6.132   0.000  0.00  0.00    -0.002 S 
ENDROOT
BRANCH   7   6
ATOM      1  C   UNL     1      -5.946   3.000   0.000  0.00  0.00    +0.001 A 
ATOM      2  C   UNL     1      -5.946   1.500   0.000  0.00  0.00    +0.001 A 
ATOM      3  C   UNL     1      -4.647   0.750   0.000  0.00  0.00    +0.020 A 
ATOM      4  C   UNL     1      -3.348   1.500   0.000  0.00  0.00    +0.048 A 
ATOM      5 CL   UNL     1      -2.049   0.750   0.000  0.00  0.00    -0.083 Cl
ATOM      6  C   UNL     1      -3.348   3.000   0.000  0.00  0.00    -0.005 A 
ATOM     21  C   UNL     1      -4.647   3.750   0.000  0.00  0.00    +0.009 A 
ENDBRANCH   7   6
BRANCH  14  15
ATOM     15  C   UNL     1      -2.049  11.367   0.000  0.00  0.00    +0.173 C 
ATOM     16  C   UNL     1      -3.348  12.117   0.000  0.00  0.00    +0.092 C 
ATOM     17  O   UNL     1      -0.750  12.117   0.000  0.00  0.00    -0.292 OA
ENDBRANCH  14  15
TORSDOF 2