REMARK  Name = 84074
REMARK  6 active torsions:
REMARK  status: ('A' for Active; 'I' for Inactive)
REMARK    1  A    between atoms: P_2  and  C_8
REMARK    2  A    between atoms: P_2  and  C_11
REMARK    3  A    between atoms: P_2  and  C_17
REMARK    4  A    between atoms: P_2  and  C_21
REMARK    5  A    between atoms: C_21  and  C_22
REMARK    6  A    between atoms: C_22  and  C_23
REMARK                            x       y       z     vdW  Elec       q    Type
REMARK                         _______ _______ _______ _____ _____    ______ ____
ROOT
ATOM      1  P   UNL     1       3.971   6.623   0.000  0.00  0.00    +0.113 P 
ENDROOT
BRANCH   1   6
ATOM      6  C   UNL     1       2.471   6.623   0.000  0.00  0.00    +0.106 A 
ATOM      7  C   UNL     1       1.721   5.324   0.000  0.00  0.00    +0.047 A 
ATOM      8  C   UNL     1       0.221   5.324   0.000  0.00  0.00    +0.004 A 
ATOM      9  C   UNL     1      -0.529   6.623   0.000  0.00  0.00    +0.000 A 
ATOM     10  C   UNL     1       0.221   7.922   0.000  0.00  0.00    +0.004 A 
ATOM     11  C   UNL     1       1.721   7.922   0.000  0.00  0.00    +0.047 A 
ENDBRANCH   1   6
BRANCH   1  12
ATOM     12  C   UNL     1       5.471   6.623   0.000  0.00  0.00    +0.106 A 
ATOM     13  C   UNL     1       6.221   5.324   0.000  0.00  0.00    +0.047 A 
ATOM     14  C   UNL     1       7.721   5.324   0.000  0.00  0.00    +0.004 A 
ATOM     15  C   UNL     1       8.471   6.623   0.000  0.00  0.00    +0.000 A 
ATOM     16  C   UNL     1       7.721   7.922   0.000  0.00  0.00    +0.004 A 
ATOM     17  C   UNL     1       6.221   7.922   0.000  0.00  0.00    +0.047 A 
ENDBRANCH   1  12
BRANCH   1  18
ATOM     18  C   UNL     1       3.971   8.123   0.000  0.00  0.00    +0.106 A 
ATOM     19  C   UNL     1       2.672   8.873   0.000  0.00  0.00    +0.047 A 
ATOM     20  C   UNL     1       2.672  10.373   0.000  0.00  0.00    +0.004 A 
ATOM     21  C   UNL     1       3.971  11.123   0.000  0.00  0.00    +0.000 A 
ATOM     22  C   UNL     1       5.270  10.373   0.000  0.00  0.00    +0.004 A 
ATOM     23  C   UNL     1       5.270   8.873   0.000  0.00  0.00    +0.047 A 
ENDBRANCH   1  18
BRANCH   1   2
ATOM      2  C   UNL     1       3.971   5.123   0.000  0.00  0.00    +0.218 C 
BRANCH   2   3
ATOM      3  C   UNL     1       2.561   4.610   0.000  0.00  0.00    +0.054 C 
BRANCH   3   4
ATOM      4  C   UNL     1       2.301   3.132   0.000  0.00  0.00    +0.083 C 
ATOM      5 BR   UNL     1       0.891   2.619   0.000  0.00  0.00    -0.092 Br
ENDBRANCH   3   4
ENDBRANCH   2   3
ENDBRANCH   1   2
TORSDOF 6