REMARK  Name = 670140
REMARK  3 active torsions:
REMARK  status: ('A' for Active; 'I' for Inactive)
REMARK    1  A    between atoms: N_14  and  O_15
REMARK    2  A    between atoms: O_15  and  C_18
REMARK    3  A    between atoms: C_18  and  C_25
REMARK                            x       y       z     vdW  Elec       q    Type
REMARK                         _______ _______ _______ _____ _____    ______ ____
ROOT
ATOM      1  C   UNL     1      -5.819  -8.500   0.000  0.00  0.00    +0.001 A 
ATOM      2  C   UNL     1      -6.470  -9.851   0.000  0.00  0.00    +0.000 A 
ATOM      3  C   UNL     1      -5.625 -11.091   0.000  0.00  0.00    +0.005 A 
ATOM      4  C   UNL     1      -4.129 -10.978   0.000  0.00  0.00    -0.023 A 
ATOM      5  C   UNL     1      -3.478 -12.330   0.000  0.00  0.00    +0.105 C 
ATOM      6 BR   UNL     1      -4.413 -13.503   0.000  0.00  0.00    -0.082 Br
ATOM      7  C   UNL     1      -2.016 -12.664   0.000  0.00  0.00    +0.105 C 
ATOM      8 BR   UNL     1      -1.682 -14.126   0.000  0.00  0.00    -0.082 Br
ATOM      9  C   UNL     1      -0.843 -11.728   0.000  0.00  0.00    -0.023 A 
ATOM     10  C   UNL     1       0.456 -12.478   0.000  0.00  0.00    +0.005 A 
ATOM     11  C   UNL     1       1.755 -11.728   0.000  0.00  0.00    +0.000 A 
ATOM     12  C   UNL     1       1.755 -10.228   0.000  0.00  0.00    +0.001 A 
ATOM     13  C   UNL     1       0.456  -9.478   0.000  0.00  0.00    +0.010 A 
ATOM     14  C   UNL     1      -0.843 -10.228   0.000  0.00  0.00    +0.008 A 
ATOM     15  C   UNL     1      -2.016  -9.293   0.000  0.00  0.00    +0.118 C 
ATOM     16  N   UNL     1      -1.682  -7.831   0.000  0.00  0.00    -0.073 NA
ATOM     26  C   UNL     1      -3.478  -9.627   0.000  0.00  0.00    +0.008 A 
ATOM     27  C   UNL     1      -4.323  -8.387   0.000  0.00  0.00    +0.010 A 
ENDROOT
BRANCH  16  17
ATOM     17  O   UNL     1      -0.249  -7.389   0.000  0.00  0.00    -0.311 OA
BRANCH  17  18
ATOM     18  C   UNL     1       0.085  -5.926   0.000  0.00  0.00    +0.366 C 
ATOM     19  O   UNL     1      -1.014  -4.906   0.000  0.00  0.00    -0.243 OA
BRANCH  18  20
ATOM     20  C   UNL     1       1.519  -5.484   0.000  0.00  0.00    +0.061 A 
ATOM     21  C   UNL     1       2.618  -6.504   0.000  0.00  0.00    +0.015 A 
ATOM     22  C   UNL     1       4.051  -6.062   0.000  0.00  0.00    +0.001 A 
ATOM     23  C   UNL     1       4.385  -4.600   0.000  0.00  0.00    +0.000 A 
ATOM     24  C   UNL     1       3.286  -3.579   0.000  0.00  0.00    +0.001 A 
ATOM     25  C   UNL     1       1.852  -4.022   0.000  0.00  0.00    +0.015 A 
ENDBRANCH  18  20
ENDBRANCH  17  18
ENDBRANCH  16  17
TORSDOF 3