REMARK  Name = 623093
REMARK  9 active torsions:
REMARK  status: ('A' for Active; 'I' for Inactive)
REMARK    1  A    between atoms: C_2  and  C_8
REMARK    2  A    between atoms: N_5  and  C_23
REMARK    3  A    between atoms: N_7  and  C_31
REMARK    4  A    between atoms: C_13  and  N_14
REMARK    5  A    between atoms: C_15  and  C_17
REMARK    6  A    between atoms: C_23  and  N_24
REMARK    7  A    between atoms: N_24  and  C_25
REMARK    8  A    between atoms: C_31  and  N_33
REMARK    9  A    between atoms: N_33  and  C_34
REMARK                            x       y       z     vdW  Elec       q    Type
REMARK                         _______ _______ _______ _____ _____    ______ ____
ROOT
ATOM      1  N   UNL     1      -8.544  10.974   0.000  0.00  0.00    -0.157 NA
ATOM      2  N   UNL     1      -7.245  10.224   0.000  0.00  0.00    -0.187 N 
ATOM     13  C   UNL     1      -7.245   8.724   0.000  0.00  0.00    +0.192 A 
ATOM     14  S   UNL     1      -5.946   7.974   0.000  0.00  0.00    -0.010 S 
ATOM     15  N   UNL     1      -8.544   7.974   0.000  0.00  0.00    -0.234 N 
ATOM     26  C   UNL     1      -9.843   8.724   0.000  0.00  0.00    +0.287 A 
ATOM     27  O   UNL     1     -11.142   7.974   0.000  0.00  0.00    -0.265 OA
ATOM     28  C   UNL     1      -9.843  10.224   0.000  0.00  0.00    +0.158 A 
ENDROOT
BRANCH  28  29
ATOM     29  C   UNL     1     -11.142  10.974   0.000  0.00  0.00    +0.029 A 
ATOM     30  C   UNL     1     -11.142  12.474   0.000  0.00  0.00    +0.043 A 
ATOM     39  C   UNL     1     -12.441  13.224   0.000  0.00  0.00    +0.024 A 
ATOM     40  C   UNL     1     -13.740  12.474   0.000  0.00  0.00    +0.002 A 
ATOM     41  C   UNL     1     -13.740  10.974   0.000  0.00  0.00    +0.001 A 
ATOM     42  C   UNL     1     -12.441  10.224   0.000  0.00  0.00    +0.012 A 
BRANCH  30  31
ATOM     31  N   UNL     1      -9.843  13.224   0.000  0.00  0.00    -0.278 N 
ATOM     32  H   UNL     1      -8.991  12.732   0.000  0.00  0.00    +0.155 HD
ATOM     33  C   UNL     1      -9.843  14.724   0.000  0.00  0.00    +0.321 C 
ATOM     38  O   UNL     1     -11.142  15.474   0.000  0.00  0.00    -0.266 OA
BRANCH  33  34
ATOM     34  C   UNL     1      -8.544  15.474   0.000  0.00  0.00    +0.470 C 
ATOM     35  F   UNL     1      -9.294  16.773   0.000  0.00  0.00    -0.162 F 
ATOM     36  F   UNL     1      -7.794  14.175   0.000  0.00  0.00    -0.162 F 
ATOM     37  F   UNL     1      -7.245  16.224   0.000  0.00  0.00    -0.162 F 
ENDBRANCH  33  34
ENDBRANCH  30  31
ENDBRANCH  28  29
BRANCH   2   3
ATOM      3  C   UNL     1      -5.946  10.974   0.000  0.00  0.00    +0.173 C 
ATOM     12  S   UNL     1      -5.946  12.474   0.000  0.00  0.00    -0.014 S 
BRANCH   3   4
ATOM      4  N   UNL     1      -4.647  10.224   0.000  0.00  0.00    -0.293 N 
ATOM      5  H   UNL     1      -4.647   9.239   0.000  0.00  0.00    +0.154 HD
BRANCH   4   6
ATOM      6  C   UNL     1      -3.348  10.974   0.000  0.00  0.00    +0.033 A 
ATOM      7  C   UNL     1      -3.348  12.474   0.000  0.00  0.00    +0.023 A 
ATOM      8  C   UNL     1      -2.049  13.224   0.000  0.00  0.00    +0.002 A 
ATOM      9  C   UNL     1      -0.750  12.474   0.000  0.00  0.00    +0.000 A 
ATOM     10  C   UNL     1      -0.750  10.974   0.000  0.00  0.00    +0.002 A 
ATOM     11  C   UNL     1      -2.049  10.224   0.000  0.00  0.00    +0.023 A 
ENDBRANCH   4   6
ENDBRANCH   3   4
ENDBRANCH   2   3
BRANCH  15  16
ATOM     16  C   UNL     1      -8.544   6.474   0.000  0.00  0.00    +0.159 C 
ATOM     25  S   UNL     1      -9.843   5.724   0.000  0.00  0.00    -0.015 S 
BRANCH  16  17
ATOM     17  N   UNL     1      -7.245   5.724   0.000  0.00  0.00    -0.294 N 
ATOM     18  H   UNL     1      -6.393   6.216   0.000  0.00  0.00    +0.154 HD
BRANCH  17  19
ATOM     19  C   UNL     1      -7.245   4.224   0.000  0.00  0.00    +0.033 A 
ATOM     20  C   UNL     1      -5.946   3.474   0.000  0.00  0.00    +0.023 A 
ATOM     21  C   UNL     1      -5.946   1.974   0.000  0.00  0.00    +0.002 A 
ATOM     22  C   UNL     1      -7.245   1.224   0.000  0.00  0.00    +0.000 A 
ATOM     23  C   UNL     1      -8.544   1.974   0.000  0.00  0.00    +0.002 A 
ATOM     24  C   UNL     1      -8.544   3.474   0.000  0.00  0.00    +0.023 A 
ENDBRANCH  17  19
ENDBRANCH  16  17
ENDBRANCH  15  16
TORSDOF 9