REMARK  Name = 623135
REMARK  5 active torsions:
REMARK  status: ('A' for Active; 'I' for Inactive)
REMARK    1  A    between atoms: C_7  and  C_20
REMARK    2  A    between atoms: C_10  and  C_19
REMARK    3  A    between atoms: C_19  and  O_24
REMARK    4  A    between atoms: C_22  and  C_23
REMARK    5  A    between atoms: C_22  and  O_24
REMARK                            x       y       z     vdW  Elec       q    Type
REMARK                         _______ _______ _______ _____ _____    ______ ____
ROOT
ATOM      1  C   UNL     1      -2.076  -6.597   0.000  0.00  0.00    +0.009 A 
ATOM      2  C   UNL     1      -0.777  -7.347   0.000  0.00  0.00    -0.014 A 
ATOM      3  C   UNL     1       0.521  -6.597   0.000  0.00  0.00    -0.034 A 
ATOM      4  C   UNL     1       0.521  -5.097   0.000  0.00  0.00    +0.045 C 
ATOM      5  C   UNL     1       1.821  -7.347   0.000  0.00  0.00    -0.006 A 
ATOM      6  C   UNL     1       3.120  -6.597   0.000  0.00  0.00    -0.007 A 
ATOM      7  C   UNL     1       3.120  -5.097   0.000  0.00  0.00    +0.009 A 
ATOM      8  C   UNL     1       4.419  -4.347   0.000  0.00  0.00    +0.001 A 
ATOM      9  C   UNL     1       5.718  -5.097   0.000  0.00  0.00    +0.001 A 
ATOM     10  C   UNL     1       5.718  -6.597   0.000  0.00  0.00    +0.011 A 
ATOM     11  C   UNL     1       4.419  -7.347   0.000  0.00  0.00    +0.018 A 
ATOM     12  C   UNL     1       4.419  -8.847   0.000  0.00  0.00    +0.132 A 
ATOM     13  F   UNL     1       5.718  -9.597   0.000  0.00  0.00    -0.205 F 
ATOM     14  C   UNL     1       3.120  -9.597   0.000  0.00  0.00    +0.048 A 
ATOM     15  C   UNL     1       1.821  -8.847   0.000  0.00  0.00    -0.007 A 
ATOM     16  C   UNL     1       0.522  -9.597   0.000  0.00  0.00    +0.005 A 
ATOM     22  C   UNL     1      -0.777  -8.847   0.000  0.00  0.00    -0.011 A 
ATOM     23  C   UNL     1      -2.076  -9.597   0.000  0.00  0.00    +0.009 A 
ATOM     24  C   UNL     1      -3.376  -8.847   0.000  0.00  0.00    +0.001 A 
ATOM     25  C   UNL     1      -3.376  -7.347   0.000  0.00  0.00    +0.001 A 
ENDROOT
BRANCH  16  17
ATOM     17  C   UNL     1       0.522 -11.097   0.000  0.00  0.00    +0.268 C 
BRANCH  17  18
ATOM     18  O   UNL     1       1.821 -11.847   0.000  0.00  0.00    -0.460 OA
BRANCH  18  19
ATOM     19  C   UNL     1       1.821 -13.347   0.000  0.00  0.00    +0.304 C 
ATOM     20  O   UNL     1       3.120 -14.097   0.000  0.00  0.00    -0.251 OA
ATOM     21  C   UNL     1       0.522 -14.097   0.000  0.00  0.00    +0.136 C 
ENDBRANCH  18  19
ENDBRANCH  17  18
ENDBRANCH  16  17
TORSDOF 3