REMARK  Name = 52141
REMARK  8 active torsions:
REMARK  status: ('A' for Active; 'I' for Inactive)
REMARK    1  A    between atoms: C_26  and  C_60
REMARK    2  A    between atoms: C_27  and  C_58
REMARK    3  A    between atoms: C_34  and  C_56
REMARK    4  A    between atoms: C_35  and  C_54
REMARK    5  A    between atoms: C_38  and  C_59
REMARK    6  A    between atoms: C_43  and  C_57
REMARK    7  A    between atoms: C_45  and  C_53
REMARK    8  A    between atoms: C_51  and  C_55
REMARK                            x       y       z     vdW  Elec       q    Type
REMARK                         _______ _______ _______ _____ _____    ______ ____
ROOT
ATOM      1  O   UNL     1       1.014   5.058   0.000  0.00  0.00    -0.250 OA
ATOM      2  C   UNL     1       2.313   5.808   0.000  0.00  0.00    +0.313 C 
ATOM      3  C   UNL     1       2.313   7.308   0.000  0.00  0.00    +0.123 C 
ATOM      4  C   UNL     1       1.014   8.058   0.000  0.00  0.00    +0.022 C 
ATOM      5  C   UNL     1       3.612   8.058   0.000  0.00  0.00    +0.132 C 
ATOM      6  C   UNL     1       4.000   9.507   0.000  0.00  0.00    +0.035 C 
ATOM      7  C   UNL     1       5.500   9.507   0.000  0.00  0.00    +0.034 C 
ATOM      8  C   UNL     1       6.210   8.058   0.000  0.00  0.00    +0.122 C 
ATOM      9  C   UNL     1       7.509   7.308   0.000  0.00  0.00    +0.076 C 
ATOM     10  C   UNL     1       8.808   8.058   0.000  0.00  0.00    +0.176 C 
ATOM     11  C   UNL     1       8.808   9.558   0.000  0.00  0.00    +0.052 C 
ATOM     12  O   UNL     1      10.108   7.308   0.000  0.00  0.00    -0.461 OA
ATOM     13  C   UNL     1      11.406   8.058   0.000  0.00  0.00    +0.313 C 
ATOM     14  C   UNL     1      12.706   7.308   0.000  0.00  0.00    +0.123 C 
ATOM     15  C   UNL     1      12.706   5.808   0.000  0.00  0.00    +0.022 C 
ATOM     16  C   UNL     1      14.005   8.058   0.000  0.00  0.00    +0.132 C 
ATOM     17  C   UNL     1      14.393   9.507   0.000  0.00  0.00    +0.035 C 
ATOM     18  C   UNL     1      15.893   9.507   0.000  0.00  0.00    +0.034 C 
ATOM     19  C   UNL     1      16.603   8.058   0.000  0.00  0.00    +0.122 C 
ATOM     20  C   UNL     1      17.902   7.308   0.000  0.00  0.00    +0.076 C 
ATOM     21  C   UNL     1      17.902   5.808   0.000  0.00  0.00    +0.176 C 
ATOM     22  C   UNL     1      19.201   5.058   0.000  0.00  0.00    +0.052 C 
ATOM     23  O   UNL     1      16.603   5.058   0.000  0.00  0.00    -0.461 OA
ATOM     24  C   UNL     1      17.902   4.308   0.000  0.00  0.00    +0.313 C 
ATOM     25  C   UNL     1      17.902   2.808   0.000  0.00  0.00    +0.123 C 
ATOM     26  C   UNL     1      19.201   2.058   0.000  0.00  0.00    +0.022 C 
ATOM     27  C   UNL     1      16.603   2.058   0.000  0.00  0.00    +0.132 C 
ATOM     28  C   UNL     1      16.214   0.609   0.000  0.00  0.00    +0.035 C 
ATOM     29  C   UNL     1      14.714   0.609   0.000  0.00  0.00    +0.034 C 
ATOM     30  C   UNL     1      14.005   2.058   0.000  0.00  0.00    +0.122 C 
ATOM     31  C   UNL     1      12.706   2.808   0.000  0.00  0.00    +0.076 C 
ATOM     32  C   UNL     1      11.406   2.058   0.000  0.00  0.00    +0.176 C 
ATOM     33  C   UNL     1      11.406   0.558   0.000  0.00  0.00    +0.052 C 
ATOM     34  O   UNL     1      10.108   2.808   0.000  0.00  0.00    -0.461 OA
ATOM     35  C   UNL     1       8.808   2.058   0.000  0.00  0.00    +0.313 C 
ATOM     36  C   UNL     1       7.509   2.808   0.000  0.00  0.00    +0.123 C 
ATOM     37  C   UNL     1       7.509   4.308   0.000  0.00  0.00    +0.022 C 
ATOM     38  C   UNL     1       6.210   2.058   0.000  0.00  0.00    +0.132 C 
ATOM     39  C   UNL     1       5.822   0.609   0.000  0.00  0.00    +0.035 C 
ATOM     40  C   UNL     1       4.322   0.609   0.000  0.00  0.00    +0.034 C 
ATOM     41  C   UNL     1       3.612   2.058   0.000  0.00  0.00    +0.122 C 
ATOM     42  C   UNL     1       2.313   2.808   0.000  0.00  0.00    +0.076 C 
ATOM     43  C   UNL     1       2.313   4.308   0.000  0.00  0.00    +0.176 C 
ATOM     44  C   UNL     1       1.014   5.058   0.000  0.00  0.00    +0.052 C 
ATOM     45  O   UNL     1       4.911   2.808   0.000  0.00  0.00    -0.372 OA
ATOM     46  O   UNL     1       8.808   0.558   0.000  0.00  0.00    -0.250 OA
ATOM     47  O   UNL     1      15.304   2.808   0.000  0.00  0.00    -0.372 OA
ATOM     48  O   UNL     1      19.201   5.058   0.000  0.00  0.00    -0.250 OA
ATOM     49  O   UNL     1      15.304   7.308   0.000  0.00  0.00    -0.372 OA
ATOM     50  O   UNL     1      11.406   9.558   0.000  0.00  0.00    -0.250 OA
ATOM     51  O   UNL     1       4.911   7.308   0.000  0.00  0.00    -0.372 OA
ATOM     52  O   UNL     1       3.612   5.058   0.000  0.00  0.00    -0.461 OA
ENDROOT
TORSDOF 0