REMARK  Name = 676561
REMARK  5 active torsions:
REMARK  status: ('A' for Active; 'I' for Inactive)
REMARK    1  A    between atoms: C_2  and  O_9
REMARK    2  A    between atoms: C_3  and  S_7
REMARK    3  A    between atoms: S_7  and  N_11
REMARK    4  A    between atoms: O_9  and  C_10
REMARK    5  A    between atoms: N_11  and  C_12
REMARK                            x       y       z     vdW  Elec       q    Type
REMARK                         _______ _______ _______ _____ _____    ______ ____
ROOT
ATOM      6  S   UNL     1       5.246   3.355   0.000  0.00  0.00    +0.146 S 
ATOM     15  O   UNL     1       5.994   4.655   0.000  0.00  0.00    -0.232 OA
ENDROOT
BRANCH   6   5
ATOM      1  C   UNL     1       1.497   2.051   0.000  0.00  0.00    +0.047 A 
ATOM      2  C   UNL     1       0.746   3.349   0.000  0.00  0.00    +0.004 A 
ATOM      3  C   UNL     1       1.494   4.649   0.000  0.00  0.00    +0.001 A 
ATOM      4  C   UNL     1       2.994   4.651   0.000  0.00  0.00    +0.022 A 
ATOM      5  C   UNL     1       3.746   3.353   0.000  0.00  0.00    +0.099 A 
ATOM     16  C   UNL     1       2.997   2.053   0.000  0.00  0.00    +0.137 A 
BRANCH  16  17
ATOM     17  O   UNL     1       3.749   0.755   0.000  0.00  0.00    -0.494 OA
ATOM     18  C   UNL     1       5.249   0.757   0.000  0.00  0.00    +0.277 C 
ENDBRANCH  16  17
ENDBRANCH   6   5
BRANCH   6   7
ATOM      7  N   UNL     1       5.997   2.057   0.000  0.00  0.00    -0.260 N 
ATOM      8  H   UNL     1       5.506   1.204   0.000  0.00  0.00    +0.163 HD
BRANCH   7   9
ATOM      9  C   UNL     1       7.497   2.059   0.000  0.00  0.00    +0.039 A 
ATOM     10  C   UNL     1       8.249   0.761   0.000  0.00  0.00    +0.024 A 
ATOM     11  C   UNL     1       9.749   0.763   0.000  0.00  0.00    +0.002 A 
ATOM     12  C   UNL     1      10.497   2.063   0.000  0.00  0.00    +0.000 A 
ATOM     13  C   UNL     1       9.746   3.361   0.000  0.00  0.00    +0.002 A 
ATOM     14  C   UNL     1       8.246   3.359   0.000  0.00  0.00    +0.024 A 
ENDBRANCH   7   9
ENDBRANCH   6   7
TORSDOF 4