REMARK  Name = 61805
REMARK  2 active torsions:
REMARK  status: ('A' for Active; 'I' for Inactive)
REMARK    1  A    between atoms: C_6  and  C_13
REMARK    2  A    between atoms: C_9  and  C_14
REMARK                            x       y       z     vdW  Elec       q    Type
REMARK                         _______ _______ _______ _____ _____    ______ ____
ROOT
ATOM      1  O   UNL     1      -2.083  -0.363   0.000  0.00  0.00    -0.371 OA
ATOM      2  C   UNL     1      -0.973  -1.692   0.000  0.00  0.00    +0.136 C 
ATOM      3  C   UNL     1      -2.381  -1.176   0.000  0.00  0.00    +0.035 C 
ATOM      4  C   UNL     1      -2.639   0.301   0.000  0.00  0.00    +0.035 C 
ATOM      5  C   UNL     1       0.178  -0.730   0.000  0.00  0.00    +0.109 C 
ATOM      6  C   UNL     1       0.589  -2.173   0.000  0.00  0.00    +0.027 C 
ATOM      7  C   UNL     1       1.663  -0.942   0.000  0.00  0.00    +0.324 C 
ATOM      8  O   UNL     1       2.365  -2.268   0.000  0.00  0.00    -0.250 OA
ATOM      9  O   UNL     1       2.324   0.405   0.000  0.00  0.00    -0.392 OA
ATOM     10  C   UNL     1       1.247   1.449   0.000  0.00  0.00    +0.324 C 
ATOM     11  O   UNL     1       1.458   2.934   0.000  0.00  0.00    -0.250 OA
ATOM     12  C   UNL     1      -0.079   0.748   0.000  0.00  0.00    +0.109 C 
ATOM     13  C   UNL     1      -0.181   2.244   0.000  0.00  0.00    +0.027 C 
ATOM     14  C   UNL     1      -1.488   1.263   0.000  0.00  0.00    +0.136 C 
ENDROOT
TORSDOF 0