REMARK  Name = 93135
REMARK  9 active torsions:
REMARK  status: ('A' for Active; 'I' for Inactive)
REMARK    1  A    between atoms: C_1  and  N_38
REMARK    2  A    between atoms: C_2  and  N_39
REMARK    3  A    between atoms: C_3  and  O_43
REMARK    4  A    between atoms: C_4  and  O_44
REMARK    5  A    between atoms: C_5  and  O_45
REMARK    6  A    between atoms: C_25  and  O_40
REMARK    7  A    between atoms: C_31  and  O_43
REMARK    8  A    between atoms: C_32  and  O_44
REMARK    9  A    between atoms: C_35  and  O_45
REMARK                            x       y       z     vdW  Elec       q    Type
REMARK                         _______ _______ _______ _____ _____    ______ ____
ROOT
ATOM      1  C   UNL     1      -9.337  -7.586   0.000  0.00  0.00    +0.105 C 
ATOM      2  N   UNL     1      -8.039  -8.337   0.000  0.00  0.00    -0.298 NA
ATOM      3  C   UNL     1      -7.812 -10.370   0.000  0.00  0.00    +0.091 C 
ATOM      4  C   UNL     1      -6.963  -9.134   0.000  0.00  0.00    -0.023 A 
ATOM      5  C   UNL     1      -5.628 -10.122   0.000  0.00  0.00    -0.038 A 
ATOM      6  C   UNL     1      -5.458  -8.632   0.000  0.00  0.00    +0.051 C 
ATOM      7  C   UNL     1      -4.144 -10.344   0.000  0.00  0.00    +0.053 A 
ATOM      8  C   UNL     1      -3.383  -9.051   0.000  0.00  0.00    +0.162 A 
ATOM     11  C   UNL     1      -4.297  -7.861   0.000  0.00  0.00    +0.170 A 
ATOM     12  O   UNL     1      -2.801  -7.978   0.000  0.00  0.00    -0.448 OA
ATOM     13  C   UNL     1      -1.731  -9.029   0.000  0.00  0.00    +0.179 A 
ATOM     14  C   UNL     1      -1.875  -7.536   0.000  0.00  0.00    +0.204 A 
ATOM     17  C   UNL     1      -0.654  -6.665   0.000  0.00  0.00    +0.165 A 
ATOM     20  C   UNL     1       0.711  -7.287   0.000  0.00  0.00    +0.053 A 
ATOM     21  C   UNL     1       0.855  -8.780   0.000  0.00  0.00    -0.034 A 
ATOM     22  C   UNL     1       2.220  -9.401   0.000  0.00  0.00    +0.051 C 
ATOM     23  C   UNL     1       2.364 -10.894   0.000  0.00  0.00    +0.089 C 
ATOM     24  N   UNL     1       1.143 -11.766   0.000  0.00  0.00    -0.298 NA
ATOM     25  C   UNL     1      -0.222 -11.144   0.000  0.00  0.00    +0.095 C 
ATOM     26  C   UNL     1       0.424 -12.498   0.000  0.00  0.00    +0.059 C 
ATOM     27  C   UNL     1       0.049 -13.950   0.000  0.00  0.00    -0.045 A 
ATOM     28  C   UNL     1      -0.800 -15.187   0.000  0.00  0.00    +0.007 A 
ATOM     29  C   UNL     1      -2.021 -16.058   0.000  0.00  0.00    +0.046 A 
ATOM     30  C   UNL     1      -3.466 -16.459   0.000  0.00  0.00    +0.129 A 
ATOM     31  O   UNL     1      -4.962 -16.342   0.000  0.00  0.00    -0.452 OA
ATOM     32  C   UNL     1      -6.327 -15.720   0.000  0.00  0.00    +0.170 A 
ATOM     33  C   UNL     1      -5.585 -14.234   0.000  0.00  0.00    +0.159 A 
ATOM     36  C   UNL     1      -5.625 -12.734   0.000  0.00  0.00    +0.049 A 
ATOM     37  C   UNL     1      -7.030 -12.209   0.000  0.00  0.00    +0.007 A 
ATOM     38  C   UNL     1      -8.043 -13.316   0.000  0.00  0.00    -0.042 A 
ATOM     39  C   UNL     1      -7.397 -14.669   0.000  0.00  0.00    +0.053 A 
ATOM     40  C   UNL     1       0.898 -12.714   0.000  0.00  0.00    +0.046 A 
ATOM     41  C   UNL     1      -0.597 -12.597   0.000  0.00  0.00    +0.007 A 
ATOM     42  C   UNL     1       1.288 -13.259   0.000  0.00  0.00    +0.105 C 
ATOM     43  C   UNL     1      -0.366  -9.651   0.000  0.00  0.00    +0.019 A 
ATOM     44  C   UNL     1      -5.742  -8.262   0.000  0.00  0.00    +0.055 A 
ATOM     45  C   UNL     1      -8.187 -11.823   0.000  0.00  0.00    +0.059 C 
ATOM     46  C   UNL     1      -6.663  -7.739   0.000  0.00  0.00    +0.089 C 
ENDROOT
BRANCH   8   9
ATOM      9  O   UNL     1      -1.893  -9.220   0.000  0.00  0.00    -0.491 OA
ATOM     10  C   UNL     1      -1.294 -10.596   0.000  0.00  0.00    +0.277 C 
ENDBRANCH   8   9
BRANCH  14  15
ATOM     15  O   UNL     1      -3.240  -6.915   0.000  0.00  0.00    -0.488 OA
ATOM     16  C   UNL     1      -3.385  -5.422   0.000  0.00  0.00    +0.277 C 
ENDBRANCH  14  15
BRANCH  17  18
ATOM     18  O   UNL     1      -0.799  -5.172   0.000  0.00  0.00    -0.491 OA
ATOM     19  C   UNL     1       0.422  -4.301   0.000  0.00  0.00    +0.277 C 
ENDBRANCH  17  18
BRANCH  33  34
ATOM     34  O   UNL     1      -4.121 -14.558   0.000  0.00  0.00    -0.503 OA
ATOM     35  H   UNL     1      -3.107 -13.452   0.000  0.00  0.00    +0.292 HD
ENDBRANCH  33  34
TORSDOF 4