REMARK  Name = 7525
REMARK  16 active torsions:
REMARK  status: ('A' for Active; 'I' for Inactive)
REMARK    1  A    between atoms: O_2  and  C_34
REMARK    2  A    between atoms: O_2  and  C_41
REMARK    3  A    between atoms: O_4  and  C_29
REMARK    4  A    between atoms: O_4  and  C_32
REMARK    5  A    between atoms: C_13  and  C_15
REMARK    6  A    between atoms: C_16  and  C_51
REMARK    7  A    between atoms: C_21  and  O_52
REMARK    8  A    between atoms: C_24  and  C_50
REMARK    9  A    between atoms: C_33  and  O_49
REMARK   10  A    between atoms: C_35  and  C_48
REMARK   11  A    between atoms: C_36  and  O_46
REMARK   12  A    between atoms: C_37  and  C_44
REMARK   13  A    between atoms: C_38  and  O_42
REMARK   14  A    between atoms: C_39  and  O_45
REMARK   15  A    between atoms: C_40  and  O_47
REMARK   16  A    between atoms: O_43  and  C_44
REMARK                            x       y       z     vdW  Elec       q    Type
REMARK                         _______ _______ _______ _____ _____    ______ ____
ROOT
ATOM     21  O   UNL     1     -10.227  -8.357   0.000  0.00  0.00    -0.341 OA
ENDROOT
BRANCH  21  22
ATOM     22  C   UNL     1      -8.735  -8.200   0.000  0.00  0.00    +0.144 C 
ATOM     23  C   UNL     1      -7.853  -9.414   0.000  0.00  0.00    +0.004 C 
ATOM     24  C   UNL     1      -6.361  -9.257   0.000  0.00  0.00    -0.065 C 
ATOM     25  C   UNL     1      -5.480 -10.471   0.000  0.00  0.00    +0.031 C 
ATOM     26  C   UNL     1      -3.988 -10.314   0.000  0.00  0.00    +0.011 C 
ATOM     27  C   UNL     1      -3.378  -8.944   0.000  0.00  0.00    +0.025 C 
ATOM     28  C   UNL     1      -4.259  -7.730   0.000  0.00  0.00    +0.005 C 
ATOM     29  C   UNL     1      -3.649  -6.360   0.000  0.00  0.00    +0.005 C 
ATOM     30  C   UNL     1      -2.158  -6.203   0.000  0.00  0.00    +0.010 C 
ATOM     31  C   UNL     1      -1.276  -7.416   0.000  0.00  0.00    +0.004 C 
ATOM     32  C   UNL     1      -0.763  -6.007   0.000  0.00  0.00    +0.014 C 
ATOM     33  C   UNL     1       0.216  -7.573   0.000  0.00  0.00    +0.031 C 
ATOM     34  C   UNL     1       0.528  -9.040   0.000  0.00  0.00    +0.012 C 
ATOM     35  C   UNL     1      -0.771  -9.790   0.000  0.00  0.00    +0.036 C 
ATOM     43  C   UNL     1      -1.886  -8.787   0.000  0.00  0.00    +0.075 C 
ATOM     46  C   UNL     1      -5.751  -7.887   0.000  0.00  0.00    -0.008 C 
ATOM     47  C   UNL     1      -5.141  -6.516   0.000  0.00  0.00    +0.016 C 
ATOM     48  C   UNL     1      -6.633  -6.673   0.000  0.00  0.00    +0.014 C 
ATOM     49  C   UNL     1      -8.125  -6.830   0.000  0.00  0.00    +0.037 C 
BRANCH  33  36
ATOM     36  C   UNL     1       0.216  -5.098   0.000  0.00  0.00    -0.009 A 
ATOM     37  C   UNL     1      -1.083  -4.348   0.000  0.00  0.00    +0.203 A 
ATOM     38  O   UNL     1      -1.083  -2.848   0.000  0.00  0.00    -0.430 OA
ATOM     39  C   UNL     1       0.216  -2.098   0.000  0.00  0.00    +0.337 A 
ATOM     40  C   UNL     1       1.515  -2.848   0.000  0.00  0.00    +0.092 A 
ATOM     41  O   UNL     1       0.216  -0.598   0.000  0.00  0.00    -0.245 OA
ATOM     42  C   UNL     1       1.515  -4.348   0.000  0.00  0.00    +0.014 A 
ENDBRANCH  33  36
BRANCH  43  44
ATOM     44  O   UNL     1      -2.349 -10.213   0.000  0.00  0.00    -0.388 OA
ATOM     45  H   UNL     1      -3.298 -10.415   0.000  0.00  0.00    +0.210 HD
ENDBRANCH  43  44
ENDBRANCH  21  22
BRANCH  21  20
ATOM     13  C   UNL     1     -10.565 -12.311   0.000  0.00  0.00    +0.186 C 
ATOM     14  C   UNL     1     -12.057 -12.468   0.000  0.00  0.00    +0.174 C 
ATOM     17  C   UNL     1     -12.939 -11.255   0.000  0.00  0.00    +0.149 C 
ATOM     18  C   UNL     1     -11.447 -11.098   0.000  0.00  0.00    +0.041 C 
ATOM     19  O   UNL     1     -12.329  -9.884   0.000  0.00  0.00    -0.343 OA
ATOM     20  C   UNL     1     -10.837  -9.727   0.000  0.00  0.00    +0.282 C 
ATOM     50  C   UNL     1      -9.955 -10.941   0.000  0.00  0.00    +0.202 C 
BRANCH  14  15
ATOM     15  O   UNL     1     -12.667 -13.838   0.000  0.00  0.00    -0.387 OA
ATOM     16  H   UNL     1     -13.632 -13.940   0.000  0.00  0.00    +0.210 HD
ENDBRANCH  14  15
BRANCH  50  51
ATOM     51  O   UNL     1      -8.463 -10.784   0.000  0.00  0.00    -0.384 OA
ATOM     52  H   UNL     1      -7.893 -11.569   0.000  0.00  0.00    +0.210 HD
ENDBRANCH  50  51
BRANCH  13  12
ATOM     12  O   UNL     1      -9.683 -13.525   0.000  0.00  0.00    -0.340 OA
BRANCH  12   2
ATOM      1  O   UNL     1     -12.019 -14.664   0.000  0.00  0.00    -0.341 OA
ATOM      2  C   UNL     1     -10.522 -14.768   0.000  0.00  0.00    +0.282 C 
ATOM      3  C   UNL     1      -9.865 -16.117   0.000  0.00  0.00    +0.201 C 
ATOM      6  C   UNL     1     -10.703 -17.360   0.000  0.00  0.00    +0.179 C 
ATOM      9  C   UNL     1     -12.200 -17.256   0.000  0.00  0.00    +0.177 C 
ATOM     53  C   UNL     1     -12.857 -15.907   0.000  0.00  0.00    +0.178 C 
BRANCH   3   4
ATOM      4  O   UNL     1      -8.368 -16.221   0.000  0.00  0.00    -0.384 OA
ATOM      5  H   UNL     1      -7.943 -17.093   0.000  0.00  0.00    +0.210 HD
ENDBRANCH   3   4
BRANCH   6   7
ATOM      7  O   UNL     1     -11.361 -16.012   0.000  0.00  0.00    -0.386 OA
ATOM      8  H   UNL     1     -10.819 -15.208   0.000  0.00  0.00    +0.210 HD
ENDBRANCH   6   7
BRANCH   9  10
ATOM     10  O   UNL     1     -13.039 -18.499   0.000  0.00  0.00    -0.386 OA
ATOM     11  H   UNL     1     -14.006 -18.431   0.000  0.00  0.00    +0.210 HD
ENDBRANCH   9  10
BRANCH  53  54
ATOM     54  C   UNL     1     -14.354 -15.803   0.000  0.00  0.00    +0.190 C 
BRANCH  54  55
ATOM     55  O   UNL     1     -15.193 -17.046   0.000  0.00  0.00    -0.392 OA
ATOM     56  H   UNL     1     -16.160 -16.979   0.000  0.00  0.00    +0.210 HD
ENDBRANCH  54  55
ENDBRANCH  53  54
ENDBRANCH  12   2
ENDBRANCH  13  12
ENDBRANCH  21  20
TORSDOF 13