REMARK  Name = 65346
REMARK  6 active torsions:
REMARK  status: ('A' for Active; 'I' for Inactive)
REMARK    1  A    between atoms: N_4  and  C1*_11
REMARK    2  A    between atoms: C_5  and  C_19
REMARK    3  A    between atoms: C2*_12  and  O2*_22
REMARK    4  A    between atoms: C3*_13  and  O3*_18
REMARK    5  A    between atoms: C4*_14  and  C5*_17
REMARK    6  A    between atoms: O5*_16  and  C5*_17
REMARK                            x       y       z     vdW  Elec       q    Type
REMARK                         _______ _______ _______ _____ _____    ______ ____
ROOT
ATOM      1  N   UNL     1       2.324  -1.025   0.000  0.00  0.00    -0.220 NA
ATOM      2  C   UNL     1       2.324  -2.525   0.000  0.00  0.00    +0.225 A 
ATOM      3  N   UNL     1       3.623  -3.275   0.000  0.00  0.00    -0.218 NA
ATOM      4  C   UNL     1       4.922  -2.525   0.000  0.00  0.00    +0.149 A 
ATOM      5  C   UNL     1       4.922  -1.025   0.000  0.00  0.00    +0.070 A 
ATOM      6  C   UNL     1       6.348  -0.561   0.000  0.00  0.00    +0.067 A 
ATOM     12  C   UNL     1       7.230  -1.775   0.000  0.00  0.00    +0.104 A 
ATOM     13  N   UNL     1       6.348  -2.988   0.000  0.00  0.00    -0.302 N 
ATOM     26  C   UNL     1       3.623  -0.275   0.000  0.00  0.00    +0.129 A 
ATOM     27  N   UNL     1       3.623   1.226   0.000  0.00  0.00    -0.343 N 
ATOM     28  H   UNL     1       2.770   1.718   0.000  0.00  0.00    +0.144 HD
ATOM     29  H   UNL     1       4.475   1.718   0.000  0.00  0.00    +0.144 HD
ENDROOT
BRANCH   6   7
ATOM      7  C   UNL     1       6.812   0.866   0.000  0.00  0.00    +0.244 C 
ATOM      8  N   UNL     1       8.279   1.178   0.000  0.00  0.00    -0.325 N 
ATOM      9  H   UNL     1       8.583   2.114   0.000  0.00  0.00    +0.145 HD
ATOM     10  H   UNL     1       8.938   0.446   0.000  0.00  0.00    +0.145 HD
ATOM     11  O   UNL     1       5.808   1.980   0.000  0.00  0.00    -0.270 OA
ENDBRANCH   6   7
BRANCH  13  14
ATOM     14  C1* UNL     1       6.812  -4.415   0.000  0.00  0.00    +0.252 C 
ATOM     15  C2* UNL     1       8.238  -4.878   0.000  0.00  0.00    +0.195 C 
ATOM     18  C3* UNL     1       8.238  -6.378   0.000  0.00  0.00    +0.178 C 
ATOM     21  C4* UNL     1       6.812  -6.842   0.000  0.00  0.00    +0.177 C 
ATOM     25  O4* UNL     1       5.930  -5.628   0.000  0.00  0.00    -0.346 OA
BRANCH  15  16
ATOM     16  O2* UNL     1       9.452  -3.997   0.000  0.00  0.00    -0.385 OA
ATOM     17  H2* UNL     1      10.338  -4.391   0.000  0.00  0.00    +0.210 HD
ENDBRANCH  15  16
BRANCH  18  19
ATOM     19  O3* UNL     1       9.452  -7.260   0.000  0.00  0.00    -0.386 OA
ATOM     20  H3* UNL     1       9.351  -8.224   0.000  0.00  0.00    +0.210 HD
ENDBRANCH  18  19
BRANCH  21  22
ATOM     22  C5* UNL     1       6.348  -8.268   0.000  0.00  0.00    +0.190 C 
BRANCH  22  23
ATOM     23  O5* UNL     1       7.352  -9.383   0.000  0.00  0.00    -0.392 OA
ATOM     24  H5* UNL     1       7.052 -10.306   0.000  0.00  0.00    +0.210 HD
ENDBRANCH  22  23
ENDBRANCH  21  22
ENDBRANCH  13  14
TORSDOF 6