REMARK  Name = 625331
REMARK  13 active torsions:
REMARK  status: ('A' for Active; 'I' for Inactive)
REMARK    1  A    between atoms: C_13  and  C_14
REMARK    2  A    between atoms: N_15  and  C_16
REMARK    3  A    between atoms: C_16  and  C_17
REMARK    4  A    between atoms: C_17  and  C_18
REMARK    5  A    between atoms: C_18  and  N_19
REMARK    6  A    between atoms: N_19  and  C_20
REMARK    7  A    between atoms: N_19  and  C_21
REMARK    8  A    between atoms: C_20  and  C_23
REMARK    9  A    between atoms: C_21  and  C_22
REMARK   10  A    between atoms: O_24  and  C_25
REMARK   11  A    between atoms: C_25  and  C_27
REMARK   12  A    between atoms: C_28  and  C_29
REMARK   13  A    between atoms: C_29  and  O_31
REMARK                            x       y       z     vdW  Elec       q    Type
REMARK                         _______ _______ _______ _____ _____    ______ ____
ROOT
ATOM      4  C   UNL     1      -5.896  13.900   0.000  0.00  0.00    +0.098 C 
ATOM      5  C   UNL     1      -5.146  15.199   0.000  0.00  0.00    +0.098 C 
ENDROOT
BRANCH   4   3
ATOM      3  C   UNL     1      -5.146  12.601   0.000  0.00  0.00    +0.330 C 
ATOM     10  O   UNL     1      -3.646  12.601   0.000  0.00  0.00    -0.246 OA
BRANCH   3   1
ATOM      1  O   UNL     1      -5.896  11.302   0.000  0.00  0.00    -0.478 OA
ATOM      2  H   UNL     1      -6.833  11.301   0.000  0.00  0.00    +0.295 HD
ENDBRANCH   3   1
ENDBRANCH   4   3
BRANCH   5   6
ATOM      6  C   UNL     1      -3.646  15.199   0.000  0.00  0.00    +0.330 C 
ATOM      9  O   UNL     1      -2.896  13.900   0.000  0.00  0.00    -0.246 OA
BRANCH   6   7
ATOM      7  O   UNL     1      -2.896  16.498   0.000  0.00  0.00    -0.478 OA
ATOM      8  H   UNL     1      -1.959  16.498   0.000  0.00  0.00    +0.295 HD
ENDBRANCH   6   7
ENDBRANCH   5   6
TORSDOF 4