REMARK  Name = 634224
REMARK  2 active torsions:
REMARK  status: ('A' for Active; 'I' for Inactive)
REMARK    1  A    between atoms: C_7  and  O_9
REMARK    2  A    between atoms: C_8  and  C_12
REMARK                            x       y       z     vdW  Elec       q    Type
REMARK                         _______ _______ _______ _____ _____    ______ ____
ROOT
ATOM      1  C   UNL     1     -11.148   1.635   0.000  0.00  0.00    +0.012 A 
ATOM      2  C   UNL     1     -10.144   0.520   0.000  0.00  0.00    +0.028 A 
ATOM      3  C   UNL     1      -8.644   0.520   0.000  0.00  0.00    +0.138 C 
ATOM      6  C   UNL     1      -8.181  -0.907   0.000  0.00  0.00    +0.091 C 
ATOM     17  C   UNL     1      -9.394  -1.788   0.000  0.00  0.00    +0.199 C 
ATOM     18  O   UNL     1      -9.394  -3.288   0.000  0.00  0.00    -0.286 OA
ATOM     19  C   UNL     1     -10.608  -0.907   0.000  0.00  0.00    +0.033 A 
ATOM     20  C   UNL     1     -12.075  -1.218   0.000  0.00  0.00    +0.012 A 
ATOM     21  C   UNL     1     -13.079  -0.104   0.000  0.00  0.00    +0.001 A 
ATOM     22  C   UNL     1     -12.615   1.323   0.000  0.00  0.00    +0.001 A 
ENDROOT
BRANCH   6   7
ATOM      7  C   UNL     1      -6.754  -1.370   0.000  0.00  0.00    +0.097 A 
ATOM      8  N   UNL     1      -5.639  -0.366   0.000  0.00  0.00    -0.243 NA
ATOM      9  C   UNL     1      -4.213  -0.830   0.000  0.00  0.00    +0.090 A 
ATOM     10  C   UNL     1      -3.098   0.174   0.000  0.00  0.00    +0.030 A 
ATOM     11  C   UNL     1      -1.671  -0.290   0.000  0.00  0.00    +0.002 A 
ATOM     12  C   UNL     1      -1.359  -1.757   0.000  0.00  0.00    +0.002 A 
ATOM     13  C   UNL     1      -2.474  -2.761   0.000  0.00  0.00    +0.030 A 
ATOM     14  C   UNL     1      -3.901  -2.297   0.000  0.00  0.00    +0.089 A 
ATOM     15  N   UNL     1      -5.016  -3.301   0.000  0.00  0.00    -0.251 NA
ATOM     16  C   UNL     1      -6.442  -2.837   0.000  0.00  0.00    +0.140 A 
ENDBRANCH   6   7
BRANCH   3   4
ATOM      4  O   UNL     1      -7.762   1.734   0.000  0.00  0.00    -0.505 OA
ATOM      5  H   UNL     1      -6.831   1.636   0.000  0.00  0.00    +0.292 HD
ENDBRANCH   3   4
TORSDOF 2