REMARK  Name = 635306
REMARK  2 active torsions:
REMARK  status: ('A' for Active; 'I' for Inactive)
REMARK    1  A    between atoms: C_13  and  C_14
REMARK    2  A    between atoms: C_14  and  C_16
REMARK                            x       y       z     vdW  Elec       q    Type
REMARK                         _______ _______ _______ _____ _____    ______ ____
ROOT
ATOM      1  C   UNL     1      -9.532  -3.206   0.000  0.00  0.00    +0.029 A 
ATOM      2  C   UNL     1      -8.233  -3.956   0.000  0.00  0.00    +0.020 A 
ATOM      3  C   UNL     1      -6.806  -3.492   0.000  0.00  0.00    +0.206 C 
ATOM      4  C   UNL     1      -5.692  -2.489   0.000  0.00  0.00    +0.236 C 
ATOM     13  O   UNL     1      -7.118  -2.025   0.000  0.00  0.00    -0.341 OA
ATOM     14  C   UNL     1      -5.925  -4.706   0.000  0.00  0.00    +0.257 C 
ATOM     15  O   UNL     1      -4.425  -4.706   0.000  0.00  0.00    -0.272 OA
ATOM     16  N   UNL     1      -6.807  -5.919   0.000  0.00  0.00    -0.281 N 
ATOM     17  H   UNL     1      -6.502  -6.856   0.000  0.00  0.00    +0.155 HD
ATOM     18  C   UNL     1      -8.233  -5.456   0.000  0.00  0.00    +0.059 A 
ATOM     19  C   UNL     1      -9.532  -6.206   0.000  0.00  0.00    +0.064 A 
ATOM     20 CL   UNL     1      -9.532  -7.706   0.000  0.00  0.00    -0.082 Cl
ATOM     21  C   UNL     1     -10.831  -5.456   0.000  0.00  0.00    +0.042 A 
ATOM     22  C   UNL     1     -10.831  -3.956   0.000  0.00  0.00    +0.043 A 
ATOM     23 CL   UNL     1     -12.130  -3.206   0.000  0.00  0.00    -0.083 Cl
ENDROOT
BRANCH   4   5
ATOM      5  C   UNL     1      -4.988  -1.164   0.000  0.00  0.00    +0.195 C 
ATOM     12  O   UNL     1      -3.489  -1.112   0.000  0.00  0.00    -0.289 OA
BRANCH   5   6
ATOM      6  C   UNL     1      -5.782   0.108   0.000  0.00  0.00    +0.020 A 
ATOM      7  C   UNL     1      -7.282   0.056   0.000  0.00  0.00    +0.011 A 
ATOM      8  C   UNL     1      -8.076   1.328   0.000  0.00  0.00    +0.001 A 
ATOM      9  C   UNL     1      -7.372   2.652   0.000  0.00  0.00    +0.000 A 
ATOM     10  C   UNL     1      -5.873   2.704   0.000  0.00  0.00    +0.001 A 
ATOM     11  C   UNL     1      -5.078   1.433   0.000  0.00  0.00    +0.011 A 
ENDBRANCH   5   6
ENDBRANCH   4   5
TORSDOF 2