REMARK  Name = 641228
REMARK  7 active torsions:
REMARK  status: ('A' for Active; 'I' for Inactive)
REMARK    1  A    between atoms: C_3  and  N_22
REMARK    2  A    between atoms: C_4  and  C_21
REMARK    3  A    between atoms: C_7  and  C_9
REMARK    4  A    between atoms: C_9  and  C_11
REMARK    5  A    between atoms: C_11  and  C_12
REMARK    6  A    between atoms: C_11  and  C_23
REMARK    7  A    between atoms: C_12  and  C_14
REMARK                            x       y       z     vdW  Elec       q    Type
REMARK                         _______ _______ _______ _____ _____    ______ ____
ROOT
ATOM     11  C   UNL     1      -6.857  -2.705   0.000  0.00  0.00    +0.181 C 
ENDROOT
BRANCH  11  12
ATOM     12  C   UNL     1      -6.857  -4.205   0.000  0.00  0.00    +0.226 C 
ATOM     13  O   UNL     1      -5.643  -5.087   0.000  0.00  0.00    -0.452 OA
ATOM     14  C   UNL     1      -6.107  -6.513   0.000  0.00  0.00    +0.340 C 
ATOM     15  O   UNL     1      -5.225  -7.727   0.000  0.00  0.00    -0.245 OA
ATOM     16  C   UNL     1      -7.607  -6.513   0.000  0.00  0.00    +0.066 A 
ATOM     17  C   UNL     1      -8.610  -7.628   0.000  0.00  0.00    +0.015 A 
ATOM     18  C   UNL     1     -10.078  -7.316   0.000  0.00  0.00    +0.001 A 
ATOM     19  C   UNL     1     -10.541  -5.889   0.000  0.00  0.00    +0.000 A 
ATOM     20  C   UNL     1      -9.537  -4.775   0.000  0.00  0.00    +0.008 A 
ATOM     21  C   UNL     1      -8.070  -5.087   0.000  0.00  0.00    +0.008 A 
ENDBRANCH  11  12
BRANCH  11  10
ATOM     10  C   UNL     1      -8.156  -1.955   0.000  0.00  0.00    +0.232 C 
ATOM     31  O   UNL     1      -9.455  -2.705   0.000  0.00  0.00    -0.286 OA
BRANCH  10   9
ATOM      7  N   UNL     1      -9.455   0.295   0.000  0.00  0.00    -0.279 N 
ATOM      8  H   UNL     1      -9.455   1.280   0.000  0.00  0.00    +0.155 HD
ATOM      9  C   UNL     1      -8.156  -0.455   0.000  0.00  0.00    +0.285 C 
ATOM     32  O   UNL     1      -6.857   0.295   0.000  0.00  0.00    -0.267 OA
BRANCH   7   6
ATOM      1  C   UNL     1     -12.053  -2.705   0.000  0.00  0.00    +0.002 A 
ATOM      2  C   UNL     1     -13.352  -1.955   0.000  0.00  0.00    +0.000 A 
ATOM      3  C   UNL     1     -13.352  -0.455   0.000  0.00  0.00    +0.005 A 
ATOM      4  C   UNL     1     -12.053   0.295   0.000  0.00  0.00    -0.029 A 
ATOM      5  C   UNL     1     -12.053   1.795   0.000  0.00  0.00    +0.045 C 
ATOM      6  C   UNL     1     -10.754  -0.455   0.000  0.00  0.00    +0.037 A 
ATOM     33  C   UNL     1     -10.754  -1.955   0.000  0.00  0.00    +0.023 A 
ENDBRANCH   7   6
ENDBRANCH  10   9
ENDBRANCH  11  10
BRANCH  11  22
ATOM     22  C   UNL     1      -5.558  -1.955   0.000  0.00  0.00    +0.180 C 
ATOM     30  O   UNL     1      -5.558  -0.455   0.000  0.00  0.00    -0.291 OA
BRANCH  22  23
ATOM     23  C   UNL     1      -4.259  -2.705   0.000  0.00  0.00    +0.053 A 
ATOM     24  C   UNL     1      -2.960  -1.955   0.000  0.00  0.00    +0.134 A 
ATOM     25  F   UNL     1      -2.960  -0.455   0.000  0.00  0.00    -0.205 F 
ATOM     26  C   UNL     1      -1.661  -2.705   0.000  0.00  0.00    +0.039 A 
ATOM     27  C   UNL     1      -1.661  -4.205   0.000  0.00  0.00    +0.003 A 
ATOM     28  C   UNL     1      -2.960  -4.955   0.000  0.00  0.00    +0.001 A 
ATOM     29  C   UNL     1      -4.259  -4.205   0.000  0.00  0.00    +0.014 A 
ENDBRANCH  22  23
ENDBRANCH  11  22
TORSDOF 6