REMARK  Name = 670229
REMARK  17 active torsions:
REMARK  status: ('A' for Active; 'I' for Inactive)
REMARK    1  A    between atoms: C_2  and  C_13
REMARK    2  A    between atoms: C_5  and  C_17
REMARK    3  A    between atoms: C_5  and  O_18
REMARK    4  A    between atoms: C_8  and  C_17
REMARK    5  A    between atoms: C_11  and  C_24
REMARK    6  A    between atoms: C_13  and  C_14
REMARK    7  A    between atoms: C_13  and  C_15
REMARK    8  A    between atoms: C_13  and  C_16
REMARK    9  A    between atoms: O_18  and  C_19
REMARK   10  A    between atoms: C_19  and  C_20
REMARK   11  A    between atoms: C_20  and  N_21
REMARK   12  A    between atoms: N_21  and  C_22
REMARK   13  A    between atoms: N_21  and  C_23
REMARK   14  A    between atoms: O_25  and  C_26
REMARK   15  A    between atoms: C_26  and  C_28
REMARK   16  A    between atoms: C_29  and  C_30
REMARK   17  A    between atoms: C_30  and  O_32
REMARK                            x       y       z     vdW  Elec       q    Type
REMARK                         _______ _______ _______ _____ _____    ______ ____
ROOT
ATOM      4  C   UNL     1       4.686   1.750   0.000  0.00  0.00    +0.098 C 
ATOM      5  C   UNL     1       3.405   0.969   0.000  0.00  0.00    +0.098 C 
ENDROOT
BRANCH   4   3
ATOM      3  C   UNL     1       4.650   3.250   0.000  0.00  0.00    +0.330 C 
ATOM     10  O   UNL     1       3.333   3.969   0.000  0.00  0.00    -0.246 OA
BRANCH   3   1
ATOM      1  O   UNL     1       5.930   4.031   0.000  0.00  0.00    -0.478 OA
ATOM      2  H   UNL     1       6.753   3.582   0.000  0.00  0.00    +0.295 HD
ENDBRANCH   3   1
ENDBRANCH   4   3
BRANCH   5   6
ATOM      6  C   UNL     1       3.441  -0.530   0.000  0.00  0.00    +0.330 C 
ATOM      9  O   UNL     1       2.161  -1.311   0.000  0.00  0.00    -0.246 OA
BRANCH   6   7
ATOM      7  O   UNL     1       4.758  -1.249   0.000  0.00  0.00    -0.478 OA
ATOM      8  H   UNL     1       4.781  -2.185   0.000  0.00  0.00    +0.295 HD
ENDBRANCH   6   7
ENDBRANCH   5   6
TORSDOF 4