REMARK  Name = 90636
REMARK  20 active torsions:
REMARK  status: ('A' for Active; 'I' for Inactive)
REMARK    1  A    between atoms: N_6  and  C_52
REMARK    2  A    between atoms: C_11  and  C_50
REMARK    3  A    between atoms: C_15  and  C_36
REMARK    4  A    between atoms: C_15  and  C_46
REMARK    5  A    between atoms: C_29  and  C_56
REMARK    6  A    between atoms: C_32  and  O_65
REMARK    7  A    between atoms: C_38  and  O_48
REMARK    8  A    between atoms: C_39  and  O_53
REMARK    9  A    between atoms: C_39  and  C_54
REMARK   10  A    between atoms: O_44  and  C_45
REMARK   11  A    between atoms: O_44  and  C_46
REMARK   12  A    between atoms: O_48  and  C_49
REMARK   13  A    between atoms: C_50  and  C_51
REMARK   14  A    between atoms: C_54  and  O_58
REMARK   15  A    between atoms: C_56  and  C_57
REMARK   16  A    between atoms: O_58  and  C_59
REMARK   17  A    between atoms: S_60  and  O_62
REMARK   18  A    between atoms: S_60  and  O_64
REMARK   19  A    between atoms: O_65  and  C_66
REMARK   20  A    between atoms: C_66  and  C_68
REMARK                            x       y       z     vdW  Elec       q    Type
REMARK                         _______ _______ _______ _____ _____    ______ ____
ROOT
ATOM      1  S   UNL     1      16.787   5.908   0.000  0.00  0.00    +0.205 S 
ATOM      4  O   UNL     1      15.290   5.803   0.000  0.00  0.00    -0.118 OA
ATOM      7  O   UNL     1      18.283   6.013   0.000  0.00  0.00    -0.118 OA
ENDROOT
BRANCH   1   2
ATOM      2  O   UNL     1      16.891   4.412   0.000  0.00  0.00    -0.231 OA
ATOM      3  H   UNL     1      16.087   3.869   0.000  0.00  0.00    +0.247 HD
ENDBRANCH   1   2
BRANCH   1   5
ATOM      5  O   UNL     1      16.682   7.405   0.000  0.00  0.00    -0.231 OA
ATOM      6  H   UNL     1      17.486   7.947   0.000  0.00  0.00    +0.247 HD
ENDBRANCH   1   5
TORSDOF 2