REMARK  Name = 668270
REMARK  4 active torsions:
REMARK  status: ('A' for Active; 'I' for Inactive)
REMARK    1  A    between atoms: C_7  and  O_12
REMARK    2  A    between atoms: O_12  and  C_13
REMARK    3  A    between atoms: C_13  and  C_14
REMARK    4  A    between atoms: C_14  and  C_21
REMARK                            x       y       z     vdW  Elec       q    Type
REMARK                         _______ _______ _______ _____ _____    ______ ____
ROOT
ATOM     11  C   UNL     1       2.256  -6.800   0.000  0.00  0.00    +0.282 C 
ENDROOT
BRANCH  11  12
ATOM     12  C   UNL     1       2.256  -5.300   0.000  0.00  0.00    +0.176 C 
ATOM     19  C   UNL     1       2.568  -3.833   0.000  0.00  0.00    +0.098 C 
ATOM     20  C   UNL     1       1.269  -3.083   0.000  0.00  0.00    +0.034 C 
ATOM     21  C   UNL     1       1.112  -1.591   0.000  0.00  0.00    +0.019 C 
ATOM     22  C   UNL     1       0.154  -4.087   0.000  0.00  0.00    +0.336 C 
ATOM     23  O   UNL     1      -1.313  -3.775   0.000  0.00  0.00    -0.245 OA
ATOM     24  O   UNL     1       0.764  -5.457   0.000  0.00  0.00    -0.446 OA
BRANCH  12  13
ATOM     13  C   UNL     1       3.748  -5.457   0.000  0.00  0.00    -0.001 A 
ATOM     14  C   UNL     1       4.358  -6.827   0.000  0.00  0.00    +0.007 A 
ATOM     15  C   UNL     1       5.850  -6.984   0.000  0.00  0.00    +0.000 A 
ATOM     16  C   UNL     1       6.731  -5.770   0.000  0.00  0.00    +0.000 A 
ATOM     17  C   UNL     1       6.121  -4.400   0.000  0.00  0.00    +0.000 A 
ATOM     18  C   UNL     1       4.629  -4.243   0.000  0.00  0.00    +0.007 A 
ENDBRANCH  12  13
ENDBRANCH  11  12
BRANCH  11  10
ATOM     10  O   UNL     1       0.957  -7.550   0.000  0.00  0.00    -0.487 OA
BRANCH  10   9
ATOM      1  C   UNL     1      -2.940  -9.800   0.000  0.00  0.00    +0.001 A 
ATOM      2  C   UNL     1      -2.940 -11.300   0.000  0.00  0.00    +0.004 A 
ATOM      3  C   UNL     1      -1.641 -12.050   0.000  0.00  0.00    +0.047 A 
ATOM      4  C   UNL     1      -0.342 -11.300   0.000  0.00  0.00    +0.143 A 
ATOM      5  O   UNL     1       0.957 -12.050   0.000  0.00  0.00    -0.422 OA
ATOM      6  C   UNL     1       2.256 -11.300   0.000  0.00  0.00    +0.341 A 
ATOM      7  O   UNL     1       3.555 -12.050   0.000  0.00  0.00    -0.245 OA
ATOM      8  C   UNL     1       2.256  -9.800   0.000  0.00  0.00    +0.138 A 
ATOM      9  C   UNL     1       0.957  -9.050   0.000  0.00  0.00    +0.138 A 
ATOM     25  C   UNL     1      -0.342  -9.800   0.000  0.00  0.00    +0.059 A 
ATOM     26  C   UNL     1      -1.641  -9.050   0.000  0.00  0.00    +0.015 A 
ENDBRANCH  10   9
ENDBRANCH  11  10
TORSDOF 4