REMARK  Name = 63701
REMARK  6 active torsions:
REMARK  status: ('A' for Active; 'I' for Inactive)
REMARK    1  A    between atoms: N_4  and  C1*_11
REMARK    2  A    between atoms: C_7  and  C_20
REMARK    3  A    between atoms: C2*_12  and  O2*_19
REMARK    4  A    between atoms: C3*_13  and  O3*_17
REMARK    5  A    between atoms: C4*_14  and  C5*_18
REMARK    6  A    between atoms: O5*_15  and  C5*_18
REMARK                            x       y       z     vdW  Elec       q    Type
REMARK                         _______ _______ _______ _____ _____    ______ ____
ROOT
ATOM      1  N   UNL     1       2.526  -0.256   0.000  0.00  0.00    -0.220 NA
ATOM      2  C   UNL     1       2.990  -1.683   0.000  0.00  0.00    +0.225 A 
ATOM      3  N   UNL     1       4.457  -1.995   0.000  0.00  0.00    -0.217 NA
ATOM      4  C   UNL     1       5.461  -0.880   0.000  0.00  0.00    +0.149 A 
ATOM      5  C   UNL     1       4.997   0.546   0.000  0.00  0.00    +0.076 A 
ATOM      6  C   UNL     1       6.211   1.428   0.000  0.00  0.00    +0.082 A 
ATOM      9  C   UNL     1       7.424   0.546   0.000  0.00  0.00    +0.110 A 
ATOM     10  N   UNL     1       6.961  -0.880   0.000  0.00  0.00    -0.302 N 
ATOM     23  C   UNL     1       3.530   0.858   0.000  0.00  0.00    +0.130 A 
ATOM     24  N   UNL     1       3.067   2.285   0.000  0.00  0.00    -0.342 N 
ATOM     25  H   UNL     1       2.104   2.490   0.000  0.00  0.00    +0.144 HD
ATOM     26  H   UNL     1       3.725   3.017   0.000  0.00  0.00    +0.144 HD
ENDROOT
BRANCH  10  11
ATOM     11  C1* UNL     1       7.843  -2.094   0.000  0.00  0.00    +0.252 C 
ATOM     12  C2* UNL     1       9.343  -2.094   0.000  0.00  0.00    +0.195 C 
ATOM     15  C3* UNL     1       9.806  -3.520   0.000  0.00  0.00    +0.178 C 
ATOM     18  C4* UNL     1       8.593  -4.402   0.000  0.00  0.00    +0.177 C 
ATOM     22  O4* UNL     1       7.379  -3.520   0.000  0.00  0.00    -0.346 OA
BRANCH  12  13
ATOM     13  O2* UNL     1      10.224  -0.880   0.000  0.00  0.00    -0.385 OA
ATOM     14  H2* UNL     1      11.189  -0.981   0.000  0.00  0.00    +0.210 HD
ENDBRANCH  12  13
BRANCH  15  16
ATOM     16  O3* UNL     1      11.233  -3.984   0.000  0.00  0.00    -0.386 OA
ATOM     17  H3* UNL     1      11.434  -4.932   0.000  0.00  0.00    +0.210 HD
ENDBRANCH  15  16
BRANCH  18  19
ATOM     19  C5* UNL     1       8.593  -5.902   0.000  0.00  0.00    +0.190 C 
BRANCH  19  20
ATOM     20  O5* UNL     1       9.892  -6.652   0.000  0.00  0.00    -0.392 OA
ATOM     21  H5* UNL     1       9.892  -7.622   0.000  0.00  0.00    +0.210 HD
ENDBRANCH  19  20
ENDBRANCH  18  19
ENDBRANCH  10  11
BRANCH   6   7
ATOM      7  C   UNL     1       6.211   2.928   0.000  0.00  0.00    +0.101 C 
ATOM      8  N   UNL     1       6.211   4.428   0.000  0.00  0.00    -0.191 NA
ENDBRANCH   6   7
TORSDOF 6