REMARK  Name = 80756
REMARK  8 active torsions:
REMARK  status: ('A' for Active; 'I' for Inactive)
REMARK    1  A    between atoms: C_7  and  C_20
REMARK    2  A    between atoms: C_11  and  C_19
REMARK    3  A    between atoms: C_13  and  O_23
REMARK    4  A    between atoms: C_15  and  O_17
REMARK    5  A    between atoms: C_16  and  O_21
REMARK    6  A    between atoms: O_17  and  C_18
REMARK    7  A    between atoms: O_21  and  C_22
REMARK    8  A    between atoms: O_23  and  C_24
REMARK                            x       y       z     vdW  Elec       q    Type
REMARK                         _______ _______ _______ _____ _____    ______ ____
ROOT
ATOM      8  C   UNL     1      -9.468  -1.400   0.000  0.00  0.00    +0.009 C 
ATOM      9  C   UNL     1      -8.169  -2.150   0.000  0.00  0.00    +0.012 C 
ENDROOT
BRANCH   8   7
ATOM      1  N   UNL     1      -9.468   3.100   0.000  0.00  0.00    -0.255 NA
ATOM      2  C   UNL     1     -10.767   2.350   0.000  0.00  0.00    +0.072 A 
ATOM      3  C   UNL     1     -10.767   0.851   0.000  0.00  0.00    +0.008 A 
ATOM      4  C   UNL     1     -12.066   0.101   0.000  0.00  0.00    +0.010 A 
ATOM      5  C   UNL     1     -13.365   0.851   0.000  0.00  0.00    +0.001 A 
ATOM      6  C   UNL     1     -13.365   2.350   0.000  0.00  0.00    +0.002 A 
ATOM      7  C   UNL     1      -9.468   0.101   0.000  0.00  0.00    -0.014 A 
ATOM     22  C   UNL     1      -8.169   0.851   0.000  0.00  0.00    +0.028 A 
ATOM     23  C   UNL     1     -12.066   3.100   0.000  0.00  0.00    +0.028 A 
ATOM     24  C   UNL     1      -8.169   2.350   0.000  0.00  0.00    +0.112 A 
ENDBRANCH   8   7
BRANCH   9  10
ATOM     10  C   UNL     1      -6.870  -1.400   0.000  0.00  0.00    +0.020 A 
ATOM     11  C   UNL     1      -6.870   0.101   0.000  0.00  0.00    +0.061 A 
ATOM     12  C   UNL     1      -5.571   0.851   0.000  0.00  0.00    +0.162 A 
ATOM     15  C   UNL     1      -4.272   0.101   0.000  0.00  0.00    +0.165 A 
ATOM     18  C   UNL     1      -4.272  -1.400   0.000  0.00  0.00    +0.095 A 
ATOM     19  C   UNL     1      -5.571  -2.150   0.000  0.00  0.00    +0.131 A 
BRANCH  12  13
ATOM     13  O   UNL     1      -5.571   2.350   0.000  0.00  0.00    -0.491 OA
ATOM     14  C   UNL     1      -6.870   3.100   0.000  0.00  0.00    +0.277 C 
ENDBRANCH  12  13
BRANCH  15  16
ATOM     16  O   UNL     1      -2.973   0.851   0.000  0.00  0.00    -0.491 OA
ATOM     17  C   UNL     1      -2.973   2.350   0.000  0.00  0.00    +0.277 C 
ENDBRANCH  15  16
BRANCH  19  20
ATOM     20  O   UNL     1      -5.571  -3.650   0.000  0.00  0.00    -0.494 OA
ATOM     21  C   UNL     1      -4.272  -4.399   0.000  0.00  0.00    +0.277 C 
ENDBRANCH  19  20
ENDBRANCH   9  10
TORSDOF 5