REMARK  Name = 640584
REMARK  6 active torsions:
REMARK  status: ('A' for Active; 'I' for Inactive)
REMARK    1  A    between atoms: C_1  and  C_3
REMARK    2  A    between atoms: C_1  and  C_11
REMARK    3  A    between atoms: C_4  and  C_5
REMARK    4  A    between atoms: C_13  and  C_14
REMARK    5  A    between atoms: C_19  and  C_23
REMARK    6  A    between atoms: C_21  and  C_28
REMARK                            x       y       z     vdW  Elec       q    Type
REMARK                         _______ _______ _______ _____ _____    ______ ____
ROOT
ATOM      2  C   UNL     1       0.232  -3.041   0.000  0.00  0.00    +0.083 A 
ATOM      3  C   UNL     1       1.532  -3.791   0.000  0.00  0.00    +0.059 A 
ATOM      4  N   UNL     1       2.646  -2.787   0.000  0.00  0.00    -0.226 NA
ATOM      5  C   UNL     1       2.036  -1.417   0.000  0.00  0.00    +0.195 A 
ATOM      6  N   UNL     1       2.786  -0.118   0.000  0.00  0.00    -0.207 N 
ATOM      7  C   UNL     1       2.176   1.252   0.000  0.00  0.00    +0.077 A 
ATOM     14  C   UNL     1       3.291   2.256   0.000  0.00  0.00    +0.058 A 
ATOM     15  C   UNL     1       4.590   1.506   0.000  0.00  0.00    +0.094 A 
ATOM     22  N   UNL     1       4.278   0.039   0.000  0.00  0.00    -0.164 NA
ATOM     23  C   UNL     1       1.688  -5.283   0.000  0.00  0.00    +0.067 C 
ATOM     24  S   UNL     1       0.544  -1.574   0.000  0.00  0.00    -0.044 S 
ENDROOT
BRANCH   7   8
ATOM      8  C   UNL     1       0.709   1.564   0.000  0.00  0.00    +0.001 A 
ATOM      9  C   UNL     1       0.245   2.991   0.000  0.00  0.00    +0.010 A 
ATOM     10  C   UNL     1      -1.222   3.303   0.000  0.00  0.00    +0.001 A 
ATOM     11  C   UNL     1      -2.226   2.188   0.000  0.00  0.00    +0.000 A 
ATOM     12  C   UNL     1      -1.762   0.761   0.000  0.00  0.00    +0.001 A 
ATOM     13  C   UNL     1      -0.295   0.450   0.000  0.00  0.00    +0.010 A 
ENDBRANCH   7   8
BRANCH  15  16
ATOM     16  C   UNL     1       5.960   2.116   0.000  0.00  0.00    +0.002 A 
ATOM     17  C   UNL     1       6.117   3.608   0.000  0.00  0.00    +0.010 A 
ATOM     18  C   UNL     1       7.487   4.218   0.000  0.00  0.00    +0.001 A 
ATOM     19  C   UNL     1       8.701   3.336   0.000  0.00  0.00    +0.000 A 
ATOM     20  C   UNL     1       8.544   1.845   0.000  0.00  0.00    +0.001 A 
ATOM     21  C   UNL     1       7.174   1.234   0.000  0.00  0.00    +0.010 A 
ENDBRANCH  15  16
BRANCH   2   1
ATOM      1  C   UNL     1      -1.138  -3.651   0.000  0.00  0.00    +0.194 C 
ATOM     35  O   UNL     1      -2.351  -2.769   0.000  0.00  0.00    -0.287 OA
BRANCH   1  25
ATOM     25  C   UNL     1      -1.295  -5.143   0.000  0.00  0.00    +0.052 C 
ATOM     26  C   UNL     1      -0.081  -6.024   0.000  0.00  0.00    +0.012 C 
BRANCH  26  27
ATOM     27  C   UNL     1      -0.238  -7.516   0.000  0.00  0.00    -0.023 A 
ATOM     28  C   UNL     1       0.976  -8.398   0.000  0.00  0.00    +0.009 A 
ATOM     29  C   UNL     1       0.819  -9.890   0.000  0.00  0.00    +0.022 A 
ATOM     30  C   UNL     1      -0.551 -10.500   0.000  0.00  0.00    +0.059 A 
ATOM     31 CL   UNL     1      -0.708 -11.992   0.000  0.00  0.00    -0.082 Cl
ATOM     32  C   UNL     1      -1.765  -9.618   0.000  0.00  0.00    +0.060 A 
ATOM     33 CL   UNL     1      -3.135 -10.228   0.000  0.00  0.00    -0.082 Cl
ATOM     34  C   UNL     1      -1.608  -8.126   0.000  0.00  0.00    +0.029 A 
ENDBRANCH  26  27
ENDBRANCH   1  25
ENDBRANCH   2   1
TORSDOF 5