REMARK  Name = 600681
REMARK  20 active torsions:
REMARK  status: ('A' for Active; 'I' for Inactive)
REMARK    1  A    between atoms: N_12  and  C_17
REMARK    2  A    between atoms: C_14  and  C_23
REMARK    3  A    between atoms: N_16  and  C_22
REMARK    4  A    between atoms: C_17  and  C_18
REMARK    5  A    between atoms: C_18  and  C_19
REMARK    6  A    between atoms: C_19  and  C_20
REMARK    7  A    between atoms: C_20  and  C_21
REMARK    8  A    between atoms: C_26  and  C_28
REMARK    9  A    between atoms: C_26  and  O_35
REMARK   10  A    between atoms: C_31  and  C_34
REMARK   11  A    between atoms: O_35  and  C_36
REMARK   12  A    between atoms: C_36  and  C_37
REMARK   13  A    between atoms: C_36  and  C_40
REMARK   14  A    between atoms: C_37  and  O_39
REMARK   15  A    between atoms: C_40  and  C_42
REMARK   16  A    between atoms: C_40  and  O_45
REMARK   17  A    between atoms: C_42  and  O_44
REMARK   18  A    between atoms: O_45  and  C_46
REMARK   19  A    between atoms: C_46  and  C_48
REMARK   20  A    between atoms: C_51  and  C_54
REMARK                            x       y       z     vdW  Elec       q    Type
REMARK                         _______ _______ _______ _____ _____    ______ ____
ROOT
ATOM      3  C   UNL     1      11.906 -11.328   0.000  0.00  0.00    +0.336 C 
ENDROOT
BRANCH   3  19
ATOM     19  C   UNL     1      12.656 -10.029   0.000  0.00  0.00    +0.350 C 
ATOM     22  O   UNL     1      11.906  -8.730   0.000  0.00  0.00    -0.247 OA
BRANCH  19  20
ATOM     20  O   UNL     1      14.156 -10.029   0.000  0.00  0.00    -0.478 OA
ATOM     21  H   UNL     1      14.625 -10.841   0.000  0.00  0.00    +0.295 HD
ENDBRANCH  19  20
ENDBRANCH   3  19
BRANCH   3   2
ATOM      2  O   UNL     1      10.607 -10.578   0.000  0.00  0.00    -0.442 OA
BRANCH   2   1
ATOM      1  C   UNL     1      10.094  -9.169   0.000  0.00  0.00    +0.340 C 
ATOM     30  O   UNL     1      11.058  -8.020   0.000  0.00  0.00    -0.245 OA
BRANCH   1  23
ATOM     23  C   UNL     1       8.617  -8.908   0.000  0.00  0.00    +0.059 A 
ATOM     24  C   UNL     1       8.104  -7.499   0.000  0.00  0.00    +0.015 A 
ATOM     25  C   UNL     1       6.627  -7.238   0.000  0.00  0.00    +0.004 A 
ATOM     26  C   UNL     1       5.663  -8.387   0.000  0.00  0.00    -0.050 A 
ATOM     27  C   UNL     1       4.185  -8.127   0.000  0.00  0.00    +0.044 C 
ATOM     28  C   UNL     1       6.176  -9.797   0.000  0.00  0.00    +0.004 A 
ATOM     29  C   UNL     1       7.653 -10.057   0.000  0.00  0.00    +0.015 A 
ENDBRANCH   1  23
ENDBRANCH   2   1
ENDBRANCH   3   2
BRANCH   3   4
ATOM      4  C   UNL     1      11.156 -12.627   0.000  0.00  0.00    +0.336 C 
BRANCH   4  15
ATOM     15  C   UNL     1      10.406 -13.926   0.000  0.00  0.00    +0.350 C 
ATOM     18  O   UNL     1       8.906 -13.926   0.000  0.00  0.00    -0.247 OA
BRANCH  15  16
ATOM     16  O   UNL     1      11.156 -15.225   0.000  0.00  0.00    -0.478 OA
ATOM     17  H   UNL     1      10.688 -16.037   0.000  0.00  0.00    +0.295 HD
ENDBRANCH  15  16
ENDBRANCH   4  15
BRANCH   4   5
ATOM      5  O   UNL     1      12.455 -13.377   0.000  0.00  0.00    -0.442 OA
BRANCH   5   6
ATOM      6  C   UNL     1      13.754 -12.627   0.000  0.00  0.00    +0.340 C 
ATOM     14  O   UNL     1      13.754 -11.127   0.000  0.00  0.00    -0.245 OA
BRANCH   6   7
ATOM      7  C   UNL     1      15.053 -13.377   0.000  0.00  0.00    +0.059 A 
ATOM      8  C   UNL     1      15.053 -14.877   0.000  0.00  0.00    +0.015 A 
ATOM      9  C   UNL     1      16.352 -15.627   0.000  0.00  0.00    +0.004 A 
ATOM     10  C   UNL     1      17.651 -14.877   0.000  0.00  0.00    -0.050 A 
ATOM     11  C   UNL     1      18.951 -15.627   0.000  0.00  0.00    +0.044 C 
ATOM     12  C   UNL     1      17.651 -13.377   0.000  0.00  0.00    +0.004 A 
ATOM     13  C   UNL     1      16.352 -12.627   0.000  0.00  0.00    +0.015 A 
ENDBRANCH   6   7
ENDBRANCH   5   6
ENDBRANCH   4   5
ENDBRANCH   3   4
TORSDOF 11