REMARK  Name = 625483
REMARK  1 active torsions:
REMARK  status: ('A' for Active; 'I' for Inactive)
REMARK    1  A    between atoms: C_10  and  C_19
REMARK                            x       y       z     vdW  Elec       q    Type
REMARK                         _______ _______ _______ _____ _____    ______ ____
ROOT
ATOM      1  C   UNL     1      -3.203  -9.039   0.000  0.00  0.00    +0.002 A 
ATOM      2  C   UNL     1      -1.904  -9.789   0.000  0.00  0.00    +0.030 A 
ATOM      3  C   UNL     1      -0.605  -9.039   0.000  0.00  0.00    +0.089 A 
ATOM      4  N   UNL     1       0.822  -9.502   0.000  0.00  0.00    -0.231 NA
ATOM      5  C   UNL     1       1.703  -8.289   0.000  0.00  0.00    +0.122 A 
ATOM      6  C   UNL     1       3.130  -7.825   0.000  0.00  0.00    +0.145 C 
ATOM      7  S   UNL     1       3.130  -6.325   0.000  0.00  0.00    -0.123 S 
ATOM      8  C   UNL     1       1.703  -5.862   0.000  0.00  0.00    +0.182 C 
ATOM     17  N   UNL     1       0.822  -7.075   0.000  0.00  0.00    -0.310 N 
ATOM     18  C   UNL     1      -0.605  -7.539   0.000  0.00  0.00    +0.070 A 
ATOM     19  C   UNL     1      -1.904  -6.789   0.000  0.00  0.00    +0.028 A 
ATOM     20  C   UNL     1      -3.203  -7.539   0.000  0.00  0.00    +0.002 A 
ENDROOT
BRANCH   8   9
ATOM      9  C   UNL     1       1.240  -4.435   0.000  0.00  0.00    +0.039 A 
ATOM     10  C   UNL     1      -0.227  -4.123   0.000  0.00  0.00    +0.050 A 
ATOM     11 CL   UNL     1      -1.231  -5.238   0.000  0.00  0.00    -0.083 Cl
ATOM     12  C   UNL     1      -0.691  -2.697   0.000  0.00  0.00    +0.020 A 
ATOM     13  C   UNL     1       0.313  -1.582   0.000  0.00  0.00    +0.004 A 
ATOM     14  C   UNL     1       1.780  -1.894   0.000  0.00  0.00    +0.039 A 
ATOM     15  C   UNL     1       2.244  -3.320   0.000  0.00  0.00    +0.131 A 
ATOM     16  F   UNL     1       3.711  -3.632   0.000  0.00  0.00    -0.205 F 
ENDBRANCH   8   9
TORSDOF 1