REMARK  Name = 698031
REMARK  8 active torsions:
REMARK  status: ('A' for Active; 'I' for Inactive)
REMARK    1  A    between atoms: C_1  and  C_14
REMARK    2  A    between atoms: C_6  and  C_7
REMARK    3  A    between atoms: C_8  and  C_15
REMARK    4  A    between atoms: C_11  and  N_16
REMARK    5  A    between atoms: N_16  and  C_17
REMARK    6  A    between atoms: N_16  and  C_18
REMARK    7  A    between atoms: C_20  and  O_33
REMARK    8  A    between atoms: N_23  and  C_26
REMARK                            x       y       z     vdW  Elec       q    Type
REMARK                         _______ _______ _______ _____ _____    ______ ____
ROOT
ATOM      1  C   UNL     1       5.363  -5.700   0.000  0.00  0.00    +0.090 A 
ATOM      2  N   UNL     1       4.063  -6.447   0.000  0.00  0.00    -0.209 NA
ATOM      3  C   UNL     1       4.059  -7.947   0.000  0.00  0.00    +0.259 A 
ATOM      4  N   UNL     1       2.759  -8.694   0.000  0.00  0.00    -0.226 N 
ATOM      5  C   UNL     1       2.755 -10.194   0.000  0.00  0.00    +0.177 A 
ATOM      6  S   UNL     1       4.052 -10.947   0.000  0.00  0.00    -0.012 S 
ATOM      7  N   UNL     1       1.454 -10.941   0.000  0.00  0.00    -0.256 N 
ATOM     14  C   UNL     1       0.157 -10.188   0.000  0.00  0.00    +0.263 A 
ATOM     15  O   UNL     1      -1.144 -10.935   0.000  0.00  0.00    -0.267 OA
ATOM     16  C   UNL     1       0.160  -8.688   0.000  0.00  0.00    +0.136 A 
ATOM     17  C   UNL     1       1.461  -7.941   0.000  0.00  0.00    +0.207 A 
ATOM     20  N   UNL     1       5.356  -8.700   0.000  0.00  0.00    -0.110 NA
ATOM     21  N   UNL     1       6.657  -7.953   0.000  0.00  0.00    -0.149 NA
ATOM     33  C   UNL     1       6.661  -6.453   0.000  0.00  0.00    +0.086 A 
ATOM     34  C   UNL     1       7.961  -5.706   0.000  0.00  0.00    +0.070 C 
ENDROOT
BRANCH   7   8
ATOM      8  C   UNL     1       1.451 -12.441   0.000  0.00  0.00    +0.052 A 
ATOM      9  C   UNL     1       0.150 -13.188   0.000  0.00  0.00    +0.026 A 
ATOM     10  C   UNL     1       0.147 -14.688   0.000  0.00  0.00    +0.002 A 
ATOM     11  C   UNL     1       1.444 -15.441   0.000  0.00  0.00    +0.000 A 
ATOM     12  C   UNL     1       2.745 -14.694   0.000  0.00  0.00    +0.002 A 
ATOM     13  C   UNL     1       2.748 -13.194   0.000  0.00  0.00    +0.026 A 
ENDBRANCH   7   8
BRANCH  17  18
ATOM     18  O   UNL     1       1.465  -6.441   0.000  0.00  0.00    -0.493 OA
ATOM     19  H   UNL     1       2.277  -5.975   0.000  0.00  0.00    +0.294 HD
ENDBRANCH  17  18
BRANCH   1  22
ATOM     22  C   UNL     1       5.369  -3.225   0.000  0.00  0.00    +0.030 C 
ATOM     23  C   UNL     1       4.072  -2.472   0.000  0.00  0.00    +0.010 C 
BRANCH  23  24
ATOM     24  C   UNL     1       4.075  -0.972   0.000  0.00  0.00    -0.025 A 
ATOM     25  C   UNL     1       2.778  -0.219   0.000  0.00  0.00    +0.010 A 
ATOM     26  C   UNL     1       2.781   1.281   0.000  0.00  0.00    +0.023 A 
ATOM     27  C   UNL     1       4.082   2.028   0.000  0.00  0.00    +0.029 A 
ATOM     31  C   UNL     1       5.379   1.275   0.000  0.00  0.00    +0.023 A 
ATOM     32  C   UNL     1       5.376  -0.225   0.000  0.00  0.00    +0.010 A 
BRANCH  27  28
ATOM     28  N   UNL     1       4.085   3.528   0.000  0.00  0.00    -0.336 N 
ATOM     29  C   UNL     1       2.788   4.281   0.000  0.00  0.00    +0.129 C 
ATOM     30  C   UNL     1       5.386   4.275   0.000  0.00  0.00    +0.129 C 
ENDBRANCH  27  28
ENDBRANCH  23  24
ENDBRANCH   1  22
TORSDOF 5