REMARK  Name = 679524
REMARK  10 active torsions:
REMARK  status: ('A' for Active; 'I' for Inactive)
REMARK    1  A    between atoms: C_7  and  C_12
REMARK    2  A    between atoms: N_9  and  S_36
REMARK    3  A    between atoms: C_10  and  C_19
REMARK    4  A    between atoms: C_12  and  O_14
REMARK    5  A    between atoms: O_14  and  C_15
REMARK    6  A    between atoms: C_19  and  O_21
REMARK    7  A    between atoms: O_21  and  C_22
REMARK    8  A    between atoms: C_22  and  C_23
REMARK    9  A    between atoms: C_29  and  S_36
REMARK   10  A    between atoms: C_32  and  C_35
REMARK                            x       y       z     vdW  Elec       q    Type
REMARK                         _______ _______ _______ _____ _____    ______ ____
ROOT
ATOM      1  C   UNL     1     -11.826  -5.665   0.000  0.00  0.00    +0.027 A 
ATOM      2  C   UNL     1     -13.251  -5.194   0.000  0.00  0.00    +0.085 A 
ATOM      7  C   UNL     1     -14.138  -6.404   0.000  0.00  0.00    +0.098 A 
ATOM      8  N   UNL     1     -13.263  -7.621   0.000  0.00  0.00    -0.357 N 
ATOM      9  H   UNL     1     -13.571  -8.556   0.000  0.00  0.00    +0.165 HD
ATOM     10  C   UNL     1     -10.524  -4.921   0.000  0.00  0.00    +0.016 A 
ATOM     11  C   UNL     1     -10.205  -3.455   0.000  0.00  0.00    +0.045 A 
ATOM     12  C   UNL     1      -8.712  -3.306   0.000  0.00  0.00    +0.150 A 
ATOM     23  N   UNL     1      -8.109  -4.679   0.000  0.00  0.00    -0.200 N 
ATOM     34  C   UNL     1      -9.228  -5.677   0.000  0.00  0.00    +0.124 A 
ATOM     35  C   UNL     1      -9.236  -7.177   0.000  0.00  0.00    +0.253 A 
ATOM     36  O   UNL     1      -7.940  -7.934   0.000  0.00  0.00    -0.281 OA
ATOM     37  C   UNL     1     -10.538  -7.921   0.000  0.00  0.00    +0.251 A 
ATOM     38  O   UNL     1     -10.546  -9.421   0.000  0.00  0.00    -0.282 OA
ATOM     39  C   UNL     1     -11.834  -7.165   0.000  0.00  0.00    +0.099 A 
ENDROOT
BRANCH  23  24
ATOM     24  S   UNL     1      -6.643  -4.998   0.000  0.00  0.00    +0.085 S 
ATOM     25  O   UNL     1      -6.962  -6.464   0.000  0.00  0.00    -0.148 OA
ATOM     26  O   UNL     1      -6.324  -3.532   0.000  0.00  0.00    -0.148 OA
BRANCH  24  27
ATOM     27  C   UNL     1      -5.178  -5.317   0.000  0.00  0.00    +0.111 A 
ATOM     28  C   UNL     1      -4.168  -4.207   0.000  0.00  0.00    +0.029 A 
ATOM     29  C   UNL     1      -2.703  -4.526   0.000  0.00  0.00    +0.005 A 
ATOM     30  C   UNL     1      -2.246  -5.955   0.000  0.00  0.00    -0.050 A 
ATOM     31  C   UNL     1      -0.780  -6.274   0.000  0.00  0.00    +0.044 C 
ATOM     32  C   UNL     1      -3.255  -7.065   0.000  0.00  0.00    +0.005 A 
ATOM     33  C   UNL     1      -4.721  -6.746   0.000  0.00  0.00    +0.029 A 
ENDBRANCH  24  27
ENDBRANCH  23  24
BRANCH   2   3
ATOM      3  C   UNL     1     -13.707  -3.766   0.000  0.00  0.00    +0.341 C 
ATOM      6  O   UNL     1     -12.698  -2.656   0.000  0.00  0.00    -0.245 OA
BRANCH   3   4
ATOM      4  O   UNL     1     -15.173  -3.447   0.000  0.00  0.00    -0.464 OA
ATOM      5  C   UNL     1     -16.182  -4.556   0.000  0.00  0.00    +0.280 C 
ENDBRANCH   3   4
ENDBRANCH   2   3
BRANCH  12  13
ATOM     13  C   UNL     1      -7.956  -2.011   0.000  0.00  0.00    +0.358 C 
ATOM     22  O   UNL     1      -6.456  -2.018   0.000  0.00  0.00    -0.243 OA
BRANCH  13  14
ATOM     14  O   UNL     1      -8.700  -0.708   0.000  0.00  0.00    -0.455 OA
BRANCH  14  15
ATOM     15  C   UNL     1      -7.944   0.588   0.000  0.00  0.00    +0.268 C 
BRANCH  15  16
ATOM     16  C   UNL     1      -6.444   0.580   0.000  0.00  0.00    -0.010 A 
ATOM     17  C   UNL     1      -5.687   1.876   0.000  0.00  0.00    +0.007 A 
ATOM     18  C   UNL     1      -4.187   1.868   0.000  0.00  0.00    +0.000 A 
ATOM     19  C   UNL     1      -3.443   0.566   0.000  0.00  0.00    +0.000 A 
ATOM     20  C   UNL     1      -4.200  -0.730   0.000  0.00  0.00    +0.000 A 
ATOM     21  C   UNL     1      -5.700  -0.722   0.000  0.00  0.00    +0.007 A 
ENDBRANCH  15  16
ENDBRANCH  14  15
ENDBRANCH  13  14
ENDBRANCH  12  13
TORSDOF 8