REMARK  Name = 67580
REMARK  15 active torsions:
REMARK  status: ('A' for Active; 'I' for Inactive)
REMARK    1  A    between atoms: C_3  and  O_26
REMARK    2  A    between atoms: C_5  and  O_28
REMARK    3  A    between atoms: C_6  and  O_30
REMARK    4  A    between atoms: C_7  and  C_9
REMARK    5  A    between atoms: C_13  and  O_22
REMARK    6  A    between atoms: C_14  and  O_18
REMARK    7  A    between atoms: C_16  and  O_20
REMARK    8  A    between atoms: C_17  and  O_24
REMARK    9  A    between atoms: O_18  and  C_19
REMARK   10  A    between atoms: O_20  and  C_21
REMARK   11  A    between atoms: O_22  and  C_23
REMARK   12  A    between atoms: O_24  and  C_25
REMARK   13  A    between atoms: O_26  and  C_27
REMARK   14  A    between atoms: O_28  and  C_29
REMARK   15  A    between atoms: O_30  and  C_31
REMARK                            x       y       z     vdW  Elec       q    Type
REMARK                         _______ _______ _______ _____ _____    ______ ____
ROOT
ATOM      1  O   UNL     1      -4.821 -12.650   0.000  0.00  0.00    -0.287 OA
ATOM      2  C   UNL     1      -4.821 -11.150   0.000  0.00  0.00    +0.197 A 
ATOM      3  C   UNL     1      -6.120 -10.400   0.000  0.00  0.00    +0.113 A 
ATOM      4  C   UNL     1      -7.419 -11.150   0.000  0.00  0.00    +0.180 A 
ATOM      7  C   UNL     1      -8.718 -10.400   0.000  0.00  0.00    +0.208 A 
ATOM     10  C   UNL     1      -8.718  -8.899   0.000  0.00  0.00    +0.211 A 
ATOM     13  C   UNL     1      -7.419  -8.149   0.000  0.00  0.00    +0.209 A 
ATOM     16  C   UNL     1      -6.120  -8.899   0.000  0.00  0.00    +0.188 A 
ATOM     17  O   UNL     1      -4.821  -8.149   0.000  0.00  0.00    -0.451 OA
ATOM     18  C   UNL     1      -3.522  -8.899   0.000  0.00  0.00    +0.140 A 
ATOM     31  C   UNL     1      -3.522 -10.400   0.000  0.00  0.00    +0.098 A 
ENDROOT
BRANCH  18  19
ATOM     19  C   UNL     1      -2.223  -8.149   0.000  0.00  0.00    +0.025 A 
ATOM     20  C   UNL     1      -0.924  -8.899   0.000  0.00  0.00    +0.061 A 
ATOM     21  C   UNL     1       0.375  -8.149   0.000  0.00  0.00    +0.166 A 
ATOM     24  C   UNL     1       0.375  -6.649   0.000  0.00  0.00    +0.204 A 
ATOM     27  C   UNL     1      -0.924  -5.899   0.000  0.00  0.00    +0.166 A 
ATOM     30  C   UNL     1      -2.223  -6.649   0.000  0.00  0.00    +0.061 A 
BRANCH  21  22
ATOM     22  O   UNL     1       1.674  -8.899   0.000  0.00  0.00    -0.491 OA
ATOM     23  C   UNL     1       2.973  -8.149   0.000  0.00  0.00    +0.277 C 
ENDBRANCH  21  22
BRANCH  24  25
ATOM     25  O   UNL     1       1.674  -5.899   0.000  0.00  0.00    -0.488 OA
ATOM     26  C   UNL     1       2.973  -6.649   0.000  0.00  0.00    +0.277 C 
ENDBRANCH  24  25
BRANCH  27  28
ATOM     28  O   UNL     1      -0.924  -4.399   0.000  0.00  0.00    -0.491 OA
ATOM     29  C   UNL     1      -2.223  -3.650   0.000  0.00  0.00    +0.277 C 
ENDBRANCH  27  28
ENDBRANCH  18  19
BRANCH   4   5
ATOM      5  O   UNL     1      -7.419 -12.650   0.000  0.00  0.00    -0.491 OA
ATOM      6  C   UNL     1      -8.718 -13.400   0.000  0.00  0.00    +0.277 C 
ENDBRANCH   4   5
BRANCH   7   8
ATOM      8  O   UNL     1     -10.017 -11.150   0.000  0.00  0.00    -0.488 OA
ATOM      9  C   UNL     1     -11.316 -10.400   0.000  0.00  0.00    +0.277 C 
ENDBRANCH   7   8
BRANCH  10  11
ATOM     11  O   UNL     1     -10.017  -8.149   0.000  0.00  0.00    -0.488 OA
ATOM     12  C   UNL     1     -11.316  -8.899   0.000  0.00  0.00    +0.277 C 
ENDBRANCH  10  11
BRANCH  13  14
ATOM     14  O   UNL     1      -7.419  -6.649   0.000  0.00  0.00    -0.488 OA
ATOM     15  C   UNL     1      -8.718  -5.899   0.000  0.00  0.00    +0.277 C 
ENDBRANCH  13  14
TORSDOF 8