REMARK  Name = 95678
REMARK  5 active torsions:
REMARK  status: ('A' for Active; 'I' for Inactive)
REMARK    1  A    between atoms: N_2  and  N_10
REMARK    2  A    between atoms: C_3  and  C_8
REMARK    3  A    between atoms: C_4  and  O_9
REMARK    4  A    between atoms: N_10  and  C_11
REMARK    5  A    between atoms: C_11  and  N_13
REMARK                            x       y       z     vdW  Elec       q    Type
REMARK                         _______ _______ _______ _____ _____    ______ ____
ROOT
ATOM      9  C   UNL     1      -3.522  -4.399   0.000  0.00  0.00    +0.161 C 
ATOM     10  N   UNL     1      -2.223  -5.149   0.000  0.00  0.00    -0.187 NA
ENDROOT
BRANCH   9   8
ATOM      1  N   UNL     1      -6.120  -4.399   0.000  0.00  0.00    -0.250 NA
ATOM      2  C   UNL     1      -7.419  -5.149   0.000  0.00  0.00    +0.111 A 
ATOM      3  C   UNL     1      -7.419  -6.649   0.000  0.00  0.00    +0.023 A 
ATOM      4  C   UNL     1      -6.120  -7.399   0.000  0.00  0.00    +0.049 A 
ATOM      5  C   UNL     1      -4.821  -6.649   0.000  0.00  0.00    +0.144 A 
ATOM      8  C   UNL     1      -4.821  -5.149   0.000  0.00  0.00    +0.125 A 
BRANCH   5   6
ATOM      6  O   UNL     1      -3.522  -7.399   0.000  0.00  0.00    -0.505 OA
ATOM      7  H   UNL     1      -3.522  -8.336   0.000  0.00  0.00    +0.292 HD
ENDBRANCH   5   6
ENDBRANCH   9   8
BRANCH  10  11
ATOM     11  N   UNL     1      -0.924  -4.399   0.000  0.00  0.00    -0.219 N 
ATOM     12  H   UNL     1      -0.071  -4.892   0.000  0.00  0.00    +0.176 HD
BRANCH  11  13
ATOM     13  C   UNL     1      -0.924  -2.900   0.000  0.00  0.00    +0.147 C 
ATOM     17  S   UNL     1      -2.223  -2.150   0.000  0.00  0.00    -0.017 S 
BRANCH  13  14
ATOM     14  N   UNL     1       0.375  -2.150   0.000  0.00  0.00    -0.339 N 
ATOM     15  H   UNL     1       0.375  -1.165   0.000  0.00  0.00    +0.144 HD
ATOM     16  H   UNL     1       1.228  -2.642   0.000  0.00  0.00    +0.144 HD
ENDBRANCH  13  14
ENDBRANCH  11  13
ENDBRANCH  10  11
TORSDOF 5