REMARK  Name = 4857
REMARK  6 active torsions:
REMARK  status: ('A' for Active; 'I' for Inactive)
REMARK    1  A    between atoms: N_2  and  C_3
REMARK    2  A    between atoms: N_2  and  C_4
REMARK    3  A    between atoms: N_2  and  C_7
REMARK    4  A    between atoms: C_3  and  C_6
REMARK    5  A    between atoms: C_4  and  C_5
REMARK    6  A    between atoms: C_7  and  S_9
REMARK                            x       y       z     vdW  Elec       q    Type
REMARK                         _______ _______ _______ _____ _____    ______ ____
ROOT
ATOM      1  N   UNL     1      -2.699  -5.022   0.000  0.00  0.00    +0.000 N 
ENDROOT
BRANCH   1   2
ATOM      2  C   UNL     1      -3.449  -6.321   0.000  0.00  0.00    +0.000 C 
ATOM      5  S   UNL     1      -4.949  -6.321   0.000  0.00  0.00    +0.000 S 
BRANCH   2   3
ATOM      3  S   UNL     1      -2.699  -7.620   0.000  0.00  0.00    +0.000 S 
ATOM      4  H   UNL     1      -3.379  -8.798   0.000  0.00  0.00    +0.000 HD
ENDBRANCH   2   3
ENDBRANCH   1   2
BRANCH   1   6
ATOM      6  C   UNL     1      -1.199  -5.022   0.000  0.00  0.00    +0.000 C 
ATOM      7  C   UNL     1      -0.449  -3.723   0.000  0.00  0.00    +0.000 C 
ENDBRANCH   1   6
BRANCH   1   8
ATOM      8  C   UNL     1      -3.449  -3.723   0.000  0.00  0.00    +0.000 C 
ATOM      9  C   UNL     1      -4.949  -3.723   0.000  0.00  0.00    +0.000 C 
ENDBRANCH   1   8
TORSDOF 4