REMARK  Name = 682769
REMARK  6 active torsions:
REMARK  status: ('A' for Active; 'I' for Inactive)
REMARK    1  A    between atoms: C_12  and  C_27
REMARK    2  A    between atoms: C_14  and  C_17
REMARK    3  A    between atoms: C_20  and  O_23
REMARK    4  A    between atoms: C_21  and  O_25
REMARK    5  A    between atoms: O_23  and  C_24
REMARK    6  A    between atoms: O_25  and  C_26
REMARK                            x       y       z     vdW  Elec       q    Type
REMARK                         _______ _______ _______ _____ _____    ______ ____
ROOT
ATOM      1  C   UNL     1      -8.843  -4.059   0.000  0.00  0.00    +0.043 A 
ATOM      2  N   UNL     1      -7.491  -3.408   0.000  0.00  0.00    -0.285 N 
ATOM      3  H   UNL     1      -7.491  -2.424   0.000  0.00  0.00    +0.155 HD
ATOM      4  C   UNL     1      -6.140  -4.059   0.000  0.00  0.00    +0.222 C 
ATOM      5  O   UNL     1      -4.967  -3.124   0.000  0.00  0.00    -0.275 OA
ATOM      6  C   UNL     1      -5.806  -5.521   0.000  0.00  0.00    +0.134 C 
ATOM      7  C   UNL     1      -6.741  -6.694   0.000  0.00  0.00    -0.005 A 
ATOM      8  C   UNL     1      -5.991  -7.993   0.000  0.00  0.00    -0.010 A 
ATOM     19  C   UNL     1      -6.741  -9.292   0.000  0.00  0.00    +0.037 A 
ATOM     20  C   UNL     1      -8.241  -9.292   0.000  0.00  0.00    +0.072 A 
ATOM     27  N   UNL     1      -8.991  -7.993   0.000  0.00  0.00    -0.246 NA
ATOM     28  C   UNL     1      -8.241  -6.694   0.000  0.00  0.00    +0.078 A 
ATOM     29  C   UNL     1      -9.942  -3.039   0.000  0.00  0.00    +0.024 A 
ATOM     30  C   UNL     1     -11.376  -3.481   0.000  0.00  0.00    +0.002 A 
ATOM     31  C   UNL     1     -11.710  -4.943   0.000  0.00  0.00    +0.001 A 
ATOM     32  C   UNL     1     -10.610  -5.963   0.000  0.00  0.00    +0.012 A 
ATOM     33  C   UNL     1      -9.177  -5.521   0.000  0.00  0.00    +0.022 A 
ENDROOT
BRANCH   8   9
ATOM      9  C   UNL     1      -4.491  -7.993   0.000  0.00  0.00    -0.014 A 
ATOM     10  C   UNL     1      -3.741  -6.694   0.000  0.00  0.00    +0.058 A 
ATOM     11  C   UNL     1      -2.241  -6.694   0.000  0.00  0.00    +0.162 A 
ATOM     14  C   UNL     1      -1.491  -7.993   0.000  0.00  0.00    +0.162 A 
ATOM     17  C   UNL     1      -2.241  -9.292   0.000  0.00  0.00    +0.050 A 
ATOM     18  C   UNL     1      -3.741  -9.292   0.000  0.00  0.00    +0.012 A 
BRANCH  11  12
ATOM     12  O   UNL     1      -1.491  -5.395   0.000  0.00  0.00    -0.491 OA
ATOM     13  C   UNL     1       0.009  -5.395   0.000  0.00  0.00    +0.277 C 
ENDBRANCH  11  12
BRANCH  14  15
ATOM     15  O   UNL     1       0.009  -7.993   0.000  0.00  0.00    -0.491 OA
ATOM     16  C   UNL     1       0.759  -6.694   0.000  0.00  0.00    +0.277 C 
ENDBRANCH  14  15
ENDBRANCH   8   9
BRANCH  20  21
ATOM     21  C   UNL     1      -8.991 -10.591   0.000  0.00  0.00    +0.000 A 
ATOM     22  C   UNL     1     -10.491 -10.591   0.000  0.00  0.00    +0.010 A 
ATOM     23  C   UNL     1     -11.241 -11.890   0.000  0.00  0.00    +0.001 A 
ATOM     24  C   UNL     1     -10.491 -13.189   0.000  0.00  0.00    +0.000 A 
ATOM     25  C   UNL     1      -8.991 -13.189   0.000  0.00  0.00    +0.001 A 
ATOM     26  C   UNL     1      -8.241 -11.890   0.000  0.00  0.00    +0.010 A 
ENDBRANCH  20  21
TORSDOF 4