REMARK  Name = 658709
REMARK  7 active torsions:
REMARK  status: ('A' for Active; 'I' for Inactive)
REMARK    1  A    between atoms: C_5  and  C_7
REMARK    2  A    between atoms: C_7  and  C_8
REMARK    3  A    between atoms: C_10  and  C_11
REMARK    4  A    between atoms: C_10  and  O_21
REMARK    5  A    between atoms: C_13  and  N_22
REMARK    6  A    between atoms: C_16  and  O_19
REMARK    7  A    between atoms: O_19  and  C_20
REMARK                            x       y       z     vdW  Elec       q    Type
REMARK                         _______ _______ _______ _____ _____    ______ ____
ROOT
ATOM      6  C   UNL     1     -11.142  -3.000   0.000  0.00  0.00    +0.102 C 
ATOM      7  C   UNL     1      -9.843  -2.250   0.000  0.00  0.00    +0.183 C 
ENDROOT
BRANCH   7  10
ATOM     10  C   UNL     1      -8.544  -3.000   0.000  0.00  0.00    +0.283 C 
ATOM     11  N   UNL     1      -7.245  -2.250   0.000  0.00  0.00    -0.279 N 
ATOM     12  H   UNL     1      -7.245  -1.266   0.000  0.00  0.00    +0.155 HD
ATOM     21  O   UNL     1      -8.544  -4.500   0.000  0.00  0.00    -0.267 OA
BRANCH  11  13
ATOM     13  C   UNL     1      -5.946  -3.000   0.000  0.00  0.00    +0.034 A 
ATOM     14  C   UNL     1      -4.647  -2.250   0.000  0.00  0.00    +0.027 A 
ATOM     15  C   UNL     1      -3.348  -3.000   0.000  0.00  0.00    +0.047 A 
ATOM     16  C   UNL     1      -3.348  -4.500   0.000  0.00  0.00    +0.120 A 
ATOM     19  C   UNL     1      -4.647  -5.250   0.000  0.00  0.00    +0.047 A 
ATOM     20  C   UNL     1      -5.946  -4.500   0.000  0.00  0.00    +0.027 A 
BRANCH  16  17
ATOM     17  O   UNL     1      -2.049  -5.250   0.000  0.00  0.00    -0.495 OA
ATOM     18  C   UNL     1      -0.750  -4.500   0.000  0.00  0.00    +0.277 C 
ENDBRANCH  16  17
ENDBRANCH  11  13
ENDBRANCH   7  10
BRANCH   6   4
ATOM      4  C   UNL     1     -12.441  -2.250   0.000  0.00  0.00    +0.190 C 
ATOM      5  O   UNL     1     -12.441  -0.750   0.000  0.00  0.00    -0.287 OA
BRANCH   4   3
ATOM      1  C   UNL     1     -16.339  -3.000   0.000  0.00  0.00    +0.001 A 
ATOM      2  C   UNL     1     -15.039  -2.250   0.000  0.00  0.00    +0.012 A 
ATOM      3  C   UNL     1     -13.740  -3.000   0.000  0.00  0.00    +0.022 A 
ATOM     22  C   UNL     1     -13.740  -4.500   0.000  0.00  0.00    +0.012 A 
ATOM     23  C   UNL     1     -15.039  -5.250   0.000  0.00  0.00    +0.001 A 
ATOM     24  C   UNL     1     -16.339  -4.500   0.000  0.00  0.00    +0.000 A 
ENDBRANCH   4   3
ENDBRANCH   6   4
BRANCH   7   8
ATOM      8  O   UNL     1      -9.843  -0.750   0.000  0.00  0.00    -0.502 OA
ATOM      9  H   UNL     1      -9.032  -0.281   0.000  0.00  0.00    +0.292 HD
ENDBRANCH   7   8
TORSDOF 6