REMARK  Name = 658144
REMARK  3 active torsions:
REMARK  status: ('A' for Active; 'I' for Inactive)
REMARK    1  A    between atoms: C_2  and  O_13
REMARK    2  A    between atoms: C_5  and  O_14
REMARK    3  A    between atoms: C_8  and  N_20
REMARK                            x       y       z     vdW  Elec       q    Type
REMARK                         _______ _______ _______ _____ _____    ______ ____
ROOT
ATOM      1  C   UNL     1      -7.419  -6.649   0.000  0.00  0.00    +0.050 A 
ATOM      2  C   UNL     1      -7.419  -8.149   0.000  0.00  0.00    +0.050 A 
ATOM      3  C   UNL     1      -6.120  -8.899   0.000  0.00  0.00    +0.129 A 
ATOM      6  C   UNL     1      -4.821  -8.149   0.000  0.00  0.00    +0.077 A 
ATOM      7  C   UNL     1      -3.522  -8.899   0.000  0.00  0.00    +0.192 C 
ATOM      8  O   UNL     1      -3.522 -10.400   0.000  0.00  0.00    -0.287 OA
ATOM      9  C   UNL     1      -2.223  -8.149   0.000  0.00  0.00    +0.078 C 
ATOM     10  C   UNL     1      -2.223  -6.649   0.000  0.00  0.00    +0.081 C 
ATOM     18  C   UNL     1      -3.522  -5.899   0.000  0.00  0.00    +0.211 C 
ATOM     19  O   UNL     1      -3.522  -4.399   0.000  0.00  0.00    -0.285 OA
ATOM     20  C   UNL     1      -4.821  -6.649   0.000  0.00  0.00    +0.079 A 
ATOM     21  C   UNL     1      -6.120  -5.899   0.000  0.00  0.00    +0.129 A 
ENDROOT
BRANCH  10  11
ATOM     11  N   UNL     1      -0.924  -5.899   0.000  0.00  0.00    -0.324 N 
ATOM     12  C   UNL     1       0.375  -6.649   0.000  0.00  0.00    +0.120 C 
ATOM     13  C   UNL     1       1.674  -5.899   0.000  0.00  0.00    +0.100 C 
ATOM     14  N   UNL     1       1.674  -4.399   0.000  0.00  0.00    -0.313 NA
ATOM     15  H   UNL     1       2.557  -3.889   0.000  0.00  0.00    +0.122 HD
ATOM     16  C   UNL     1       0.375  -3.650   0.000  0.00  0.00    +0.100 C 
ATOM     17  C   UNL     1      -0.924  -4.399   0.000  0.00  0.00    +0.120 C 
ENDBRANCH  10  11
BRANCH   3   4
ATOM      4  O   UNL     1      -6.120 -10.400   0.000  0.00  0.00    -0.506 OA
ATOM      5  H   UNL     1      -6.932 -10.868   0.000  0.00  0.00    +0.292 HD
ENDBRANCH   3   4
BRANCH  21  22
ATOM     22  O   UNL     1      -6.120  -4.399   0.000  0.00  0.00    -0.506 OA
ATOM     23  H   UNL     1      -5.309  -3.931   0.000  0.00  0.00    +0.292 HD
ENDBRANCH  21  22
TORSDOF 3