REMARK  Name = 640580
REMARK  5 active torsions:
REMARK  status: ('A' for Active; 'I' for Inactive)
REMARK    1  A    between atoms: C_1  and  C_3
REMARK    2  A    between atoms: C_1  and  C_11
REMARK    3  A    between atoms: C_4  and  C_5
REMARK    4  A    between atoms: C_13  and  C_14
REMARK    5  A    between atoms: C_16  and  C_17
REMARK                            x       y       z     vdW  Elec       q    Type
REMARK                         _______ _______ _______ _____ _____    ______ ____
ROOT
ATOM      1  C   UNL     1       0.717   3.489   0.000  0.00  0.00    +0.194 C 
ATOM     24  O   UNL     1      -0.783   3.502   0.000  0.00  0.00    -0.287 OA
ENDROOT
BRANCH   1   2
ATOM      2  C   UNL     1       1.478   4.782   0.000  0.00  0.00    +0.082 A 
ATOM      3  C   UNL     1       2.971   4.925   0.000  0.00  0.00    +0.057 A 
ATOM      4  N   UNL     1       3.296   6.390   0.000  0.00  0.00    -0.243 NA
ATOM      5  C   UNL     1       2.003   7.151   0.000  0.00  0.00    +0.111 A 
ATOM     12  C   UNL     1       3.965   3.802   0.000  0.00  0.00    +0.067 C 
ATOM     13  S   UNL     1       0.880   6.157   0.000  0.00  0.00    -0.064 S 
BRANCH   5   6
ATOM      6  C   UNL     1       1.860   8.644   0.000  0.00  0.00    +0.025 A 
ATOM      7  C   UNL     1       0.495   9.266   0.000  0.00  0.00    +0.121 A 
ATOM      8  N   UNL     1       0.351  10.759   0.000  0.00  0.00    -0.263 NA
ATOM      9  C   UNL     1       1.572  11.630   0.000  0.00  0.00    +0.111 A 
ATOM     10  C   UNL     1       2.937  11.008   0.000  0.00  0.00    +0.020 A 
ATOM     11  C   UNL     1       3.081   9.515   0.000  0.00  0.00    +0.013 A 
ENDBRANCH   5   6
ENDBRANCH   1   2
BRANCH   1  14
ATOM     14  C   UNL     1       1.455   2.184   0.000  0.00  0.00    +0.052 C 
ATOM     15  C   UNL     1       2.955   2.170   0.000  0.00  0.00    +0.013 C 
BRANCH  15  16
ATOM     16  C   UNL     1       3.694   0.865   0.000  0.00  0.00    -0.007 A 
ATOM     17  C   UNL     1       2.932  -0.428   0.000  0.00  0.00    +0.011 A 
ATOM     18  C   UNL     1       3.671  -1.733   0.000  0.00  0.00    +0.020 A 
ATOM     19  C   UNL     1       5.171  -1.746   0.000  0.00  0.00    +0.042 A 
ATOM     20 CL   UNL     1       5.909  -3.052   0.000  0.00  0.00    -0.083 Cl
ATOM     21  C   UNL     1       5.932  -0.454   0.000  0.00  0.00    +0.040 A 
ATOM     22  C   UNL     1       5.194   0.852   0.000  0.00  0.00    +0.049 A 
ATOM     23 CL   UNL     1       5.955   2.144   0.000  0.00  0.00    -0.083 Cl
ENDBRANCH  15  16
ENDBRANCH   1  14
TORSDOF 4