REMARK  Name = 664331
REMARK  2 active torsions:
REMARK  status: ('A' for Active; 'I' for Inactive)
REMARK    1  A    between atoms: N_3  and  C_6
REMARK    2  A    between atoms: C_13  and  C_17
REMARK                            x       y       z     vdW  Elec       q    Type
REMARK                         _______ _______ _______ _____ _____    ______ ____
ROOT
ATOM      5  C   UNL     1      -4.423   4.804   0.000  0.00  0.00    +0.043 A 
ATOM      6  C   UNL     1      -5.722   5.554   0.000  0.00  0.00    +0.024 A 
ATOM      7  C   UNL     1      -5.722   7.054   0.000  0.00  0.00    +0.003 A 
ATOM      8  C   UNL     1      -4.423   7.804   0.000  0.00  0.00    +0.012 A 
ATOM      9  C   UNL     1      -3.124   7.054   0.000  0.00  0.00    +0.031 A 
ATOM     10  C   UNL     1      -1.697   7.517   0.000  0.00  0.00    +0.187 C 
ATOM     11  O   UNL     1      -1.234   8.944   0.000  0.00  0.00    -0.287 OA
ATOM     12  C   UNL     1      -0.816   6.304   0.000  0.00  0.00    +0.055 C 
ATOM     13  C   UNL     1      -1.697   5.090   0.000  0.00  0.00    -0.037 C 
ATOM     14  C   UNL     1      -1.234   3.664   0.000  0.00  0.00    +0.044 C 
ATOM     15  C   UNL     1      -3.124   5.554   0.000  0.00  0.00    +0.010 A 
ENDROOT
BRANCH   5   3
ATOM      1  N   UNL     1      -7.092   3.164   0.000  0.00  0.00    -0.233 NA
ATOM      2  C   UNL     1      -5.722   2.554   0.000  0.00  0.00    +0.282 C 
ATOM      3  N   UNL     1      -4.423   3.304   0.000  0.00  0.00    -0.269 N 
ATOM      4  H   UNL     1      -3.570   2.811   0.000  0.00  0.00    +0.157 HD
ATOM     16  O   UNL     1      -5.879   1.062   0.000  0.00  0.00    -0.464 OA
ATOM     17  C   UNL     1      -7.346   0.750   0.000  0.00  0.00    +0.255 C 
ATOM     18  C   UNL     1      -8.096   2.049   0.000  0.00  0.00    +0.187 C 
ENDBRANCH   5   3
TORSDOF 1