REMARK  Name = 634471
REMARK  6 active torsions:
REMARK  status: ('A' for Active; 'I' for Inactive)
REMARK    1  A    between atoms: N_8  and  C_10
REMARK    2  A    between atoms: C_10  and  C_11
REMARK    3  A    between atoms: C_11  and  C_12
REMARK    4  A    between atoms: C_12  and  O_14
REMARK    5  A    between atoms: O_14  and  C_15
REMARK    6  A    between atoms: C_15  and  C_16
REMARK                            x       y       z     vdW  Elec       q    Type
REMARK                         _______ _______ _______ _____ _____    ______ ____
ROOT
ATOM      1  C   UNL     1      -9.843  -0.750   0.000  0.00  0.00    +0.154 A 
ATOM      2  N   UNL     1      -8.544  -1.500   0.000  0.00  0.00    -0.175 NA
ATOM      3  N   UNL     1      -8.544  -3.000   0.000  0.00  0.00    -0.228 N 
ATOM     11  C   UNL     1      -9.843  -3.750   0.000  0.00  0.00    +0.287 A 
ATOM     12  O   UNL     1      -9.843  -5.250   0.000  0.00  0.00    -0.265 OA
ATOM     13  C   UNL     1     -11.142  -3.000   0.000  0.00  0.00    +0.126 A 
ATOM     14 CL   UNL     1     -12.441  -3.750   0.000  0.00  0.00    -0.076 Cl
ATOM     15  C   UNL     1     -11.142  -1.500   0.000  0.00  0.00    +0.084 A 
ATOM     16 CL   UNL     1     -12.441  -0.750   0.000  0.00  0.00    -0.080 Cl
ENDROOT
BRANCH   3   4
ATOM      4  C   UNL     1      -7.245  -3.750   0.000  0.00  0.00    +0.158 C 
BRANCH   4   5
ATOM      5  C   UNL     1      -5.946  -3.000   0.000  0.00  0.00    +0.144 C 
BRANCH   5   6
ATOM      6  C   UNL     1      -4.647  -3.750   0.000  0.00  0.00    +0.309 C 
ATOM     10  O   UNL     1      -4.647  -5.250   0.000  0.00  0.00    -0.251 OA
BRANCH   6   7
ATOM      7  O   UNL     1      -3.348  -3.000   0.000  0.00  0.00    -0.465 OA
BRANCH   7   8
ATOM      8  C   UNL     1      -2.049  -3.750   0.000  0.00  0.00    +0.229 C 
ATOM      9  C   UNL     1      -0.750  -3.000   0.000  0.00  0.00    +0.048 C 
ENDBRANCH   7   8
ENDBRANCH   6   7
ENDBRANCH   5   6
ENDBRANCH   4   5
ENDBRANCH   3   4
TORSDOF 5