REMARK  Name = 635448
REMARK  4 active torsions:
REMARK  status: ('A' for Active; 'I' for Inactive)
REMARK    1  A    between atoms: C_7  and  C_10
REMARK    2  A    between atoms: C_12  and  N_13
REMARK    3  A    between atoms: N_13  and  C_14
REMARK    4  A    between atoms: N_13  and  C_15
REMARK                            x       y       z     vdW  Elec       q    Type
REMARK                         _______ _______ _______ _____ _____    ______ ____
ROOT
ATOM      1  C   UNL     1      -2.276   3.764   0.000  0.00  0.00    +0.000 A 
ATOM      2  C   UNL     1      -0.790   3.560   0.000  0.00  0.00    +0.000 A 
ATOM      3  C   UNL     1      -0.224   2.171   0.000  0.00  0.00    +0.000 A 
ATOM      4  C   UNL     1       1.187   1.662   0.000  0.00  0.00    +0.000 C 
ATOM      5  C   UNL     1       2.428   2.504   0.000  0.00  0.00    +0.000 C 
ATOM      6  N   UNL     1       1.139   0.163   0.000  0.00  0.00    +1.000 N 
ATOM      7 CU   UNL     1      -0.301  -0.255   0.000  0.00  0.00    +0.000 Cu
ATOM      8  S   UNL     1      -0.349  -1.755   0.000  0.00  0.00    +0.000 S 
ATOM      9  H   UNL     1      -1.474  -2.519   0.000  0.00  0.00    +0.000 HD
ATOM     10  C   UNL     1       1.062  -2.263   0.000  0.00  0.00    +0.000 C 
ATOM     14 BR   UNL     1      -1.742  -0.673   0.000  0.00  0.00    +0.000 Br
ATOM     15  N   UNL     1       1.982  -1.078   0.000  0.00  0.00    -1.000 NA
ATOM     16  N   UNL     1      -1.144   0.986   0.000  0.00  0.00    +1.000 N 
ATOM     17  C   UNL     1      -2.630   1.190   0.000  0.00  0.00    +0.000 A 
ATOM     18  C   UNL     1      -3.196   2.579   0.000  0.00  0.00    +0.000 A 
ENDROOT
BRANCH  10  11
ATOM     11  N   UNL     1       1.480  -3.704   0.000  0.00  0.00    +0.000 N 
ATOM     12  C   UNL     1       2.936  -4.062   0.000  0.00  0.00    +0.000 C 
ATOM     13  C   UNL     1       0.441  -4.786   0.000  0.00  0.00    +0.000 C 
ENDBRANCH  10  11
TORSDOF 1