REMARK  Name = 71300
REMARK  13 active torsions:
REMARK  status: ('A' for Active; 'I' for Inactive)
REMARK    1  A    between atoms: C_3  and  O_28
REMARK    2  A    between atoms: C_4  and  C_8
REMARK    3  A    between atoms: C_10  and  O_26
REMARK    4  A    between atoms: C_13  and  O_22
REMARK    5  A    between atoms: C_15  and  O_18
REMARK    6  A    between atoms: C_16  and  O_20
REMARK    7  A    between atoms: C_17  and  O_24
REMARK    8  A    between atoms: O_18  and  C_19
REMARK    9  A    between atoms: O_20  and  C_21
REMARK   10  A    between atoms: O_22  and  C_23
REMARK   11  A    between atoms: O_24  and  C_25
REMARK   12  A    between atoms: O_26  and  C_27
REMARK   13  A    between atoms: O_28  and  C_29
REMARK                            x       y       z     vdW  Elec       q    Type
REMARK                         _______ _______ _______ _____ _____    ______ ____
ROOT
ATOM      1  O   UNL     1     -10.118   2.525   0.000  0.00  0.00    -0.287 OA
ATOM      2  C   UNL     1      -8.819   3.275   0.000  0.00  0.00    +0.197 A 
ATOM      3  C   UNL     1      -8.819   4.774   0.000  0.00  0.00    +0.113 A 
ATOM      4  C   UNL     1     -10.118   5.524   0.000  0.00  0.00    +0.180 A 
ATOM      7  C   UNL     1     -10.118   7.024   0.000  0.00  0.00    +0.208 A 
ATOM     10  C   UNL     1      -8.819   7.774   0.000  0.00  0.00    +0.211 A 
ATOM     13  C   UNL     1      -7.520   7.024   0.000  0.00  0.00    +0.209 A 
ATOM     16  C   UNL     1      -7.520   5.524   0.000  0.00  0.00    +0.188 A 
ATOM     17  O   UNL     1      -6.221   4.774   0.000  0.00  0.00    -0.451 OA
ATOM     18  C   UNL     1      -6.221   3.275   0.000  0.00  0.00    +0.143 A 
ATOM     29  C   UNL     1      -7.520   2.525   0.000  0.00  0.00    +0.098 A 
ENDROOT
BRANCH  18  19
ATOM     19  C   UNL     1      -4.922   2.525   0.000  0.00  0.00    +0.062 A 
ATOM     20  C   UNL     1      -4.922   1.025   0.000  0.00  0.00    +0.060 A 
ATOM     21  C   UNL     1      -3.623   0.275   0.000  0.00  0.00    +0.121 A 
ATOM     24  C   UNL     1      -2.324   1.025   0.000  0.00  0.00    +0.049 A 
ATOM     25  C   UNL     1      -2.324   2.525   0.000  0.00  0.00    +0.050 A 
ATOM     26  C   UNL     1      -3.623   3.275   0.000  0.00  0.00    +0.131 A 
BRANCH  21  22
ATOM     22  O   UNL     1      -3.623  -1.226   0.000  0.00  0.00    -0.495 OA
ATOM     23  C   UNL     1      -4.922  -1.976   0.000  0.00  0.00    +0.277 C 
ENDBRANCH  21  22
BRANCH  26  27
ATOM     27  O   UNL     1      -3.623   4.774   0.000  0.00  0.00    -0.494 OA
ATOM     28  C   UNL     1      -4.922   5.524   0.000  0.00  0.00    +0.277 C 
ENDBRANCH  26  27
ENDBRANCH  18  19
BRANCH   4   5
ATOM      5  O   UNL     1     -11.417   4.774   0.000  0.00  0.00    -0.491 OA
ATOM      6  C   UNL     1     -12.716   5.524   0.000  0.00  0.00    +0.277 C 
ENDBRANCH   4   5
BRANCH   7   8
ATOM      8  O   UNL     1     -11.417   7.774   0.000  0.00  0.00    -0.488 OA
ATOM      9  C   UNL     1     -11.417   9.274   0.000  0.00  0.00    +0.277 C 
ENDBRANCH   7   8
BRANCH  10  11
ATOM     11  O   UNL     1      -8.819   9.274   0.000  0.00  0.00    -0.488 OA
ATOM     12  C   UNL     1     -10.118  10.025   0.000  0.00  0.00    +0.277 C 
ENDBRANCH  10  11
BRANCH  13  14
ATOM     14  O   UNL     1      -6.221   7.774   0.000  0.00  0.00    -0.488 OA
ATOM     15  C   UNL     1      -6.221   9.274   0.000  0.00  0.00    +0.277 C 
ENDBRANCH  13  14
TORSDOF 7