REMARK  Name = 689228
REMARK  22 active torsions:
REMARK  status: ('A' for Active; 'I' for Inactive)
REMARK    1  A    between atoms: C_1  and  C_3
REMARK    2  A    between atoms: C_4  and  C_5
REMARK    3  A    between atoms: C_5  and  C_6
REMARK    4  A    between atoms: C_5  and  O_23
REMARK    5  A    between atoms: C_6  and  C_7
REMARK    6  A    between atoms: C_7  and  C_8
REMARK    7  A    between atoms: C_8  and  C_9
REMARK    8  A    between atoms: C_9  and  C_10
REMARK    9  A    between atoms: C_13  and  O_15
REMARK   10  A    between atoms: O_15  and  SI_16
REMARK   11  A    between atoms: SI_16  and  C_17
REMARK   12  A    between atoms: SI_16  and  C_18
REMARK   13  A    between atoms: SI_16  and  C_19
REMARK   14  A    between atoms: C_19  and  C_20
REMARK   15  A    between atoms: C_19  and  C_21
REMARK   16  A    between atoms: C_19  and  C_22
REMARK   17  A    between atoms: O_23  and  C_24
REMARK   18  A    between atoms: C_24  and  O_25
REMARK   19  A    between atoms: O_25  and  C_26
REMARK   20  A    between atoms: C_26  and  C_27
REMARK   21  A    between atoms: C_27  and  O_28
REMARK   22  A    between atoms: O_28  and  C_29
REMARK                            x       y       z     vdW  Elec       q    Type
REMARK                         _______ _______ _______ _____ _____    ______ ____
ROOT
ATOM     14  C   UNL     1       8.976   1.799   0.000  0.00  0.00    +0.000 C 
ATOM     15  C   UNL     1      10.441   2.120   0.000  0.00  0.00    +0.000 C 
ENDROOT
BRANCH  14   1
ATOM      1  C   UNL     1       7.965   2.907   0.000  0.00  0.00    +0.000 C 
ATOM      2  C   UNL     1       6.474   2.740   0.000  0.00  0.00    +0.000 C 
ATOM     11  C   UNL     1       5.855   4.106   0.000  0.00  0.00    +0.000 C 
ATOM     12  C   UNL     1       6.963   5.117   0.000  0.00  0.00    +0.000 C 
ATOM     13  O   UNL     1       6.797   6.608   0.000  0.00  0.00    +0.000 OA
ATOM     29  C   UNL     1       8.267   4.376   0.000  0.00  0.00    +0.000 C 
BRANCH   2   3
ATOM      3  O   UNL     1       5.733   1.436   0.000  0.00  0.00    +0.000 OA
BRANCH   3   4
ATOM      4 SI   UNL     1       4.233   1.426   0.000  0.00  0.00    +0.000 Si
ATOM      9  C   UNL     1       4.223   2.926   0.000  0.00  0.00    +0.000 C 
ATOM     10  C   UNL     1       4.243  -0.074   0.000  0.00  0.00    +0.000 C 
BRANCH   4   5
ATOM      5  C   UNL     1       2.733   1.416   0.000  0.00  0.00    +0.000 C 
ATOM      6  C   UNL     1       2.743  -0.084   0.000  0.00  0.00    +0.000 C 
ATOM      7  C   UNL     1       1.233   1.406   0.000  0.00  0.00    +0.000 C 
ATOM      8  C   UNL     1       2.723   2.916   0.000  0.00  0.00    +0.000 C 
ENDBRANCH   4   5
ENDBRANCH   3   4
ENDBRANCH   2   3
ENDBRANCH  14   1
BRANCH  15  16
ATOM     16  C   UNL     1      11.453   1.012   0.000  0.00  0.00    +0.000 C 
BRANCH  16  17
ATOM     17  O   UNL     1      10.999  -0.417   0.000  0.00  0.00    +0.000 OA
BRANCH  17  18
ATOM     18  C   UNL     1      12.010  -1.525   0.000  0.00  0.00    +0.000 C 
BRANCH  18  19
ATOM     19  O   UNL     1      13.475  -1.204   0.000  0.00  0.00    +0.000 OA
BRANCH  19  20
ATOM     20  C   UNL     1      14.486  -2.312   0.000  0.00  0.00    +0.000 C 
BRANCH  20  21
ATOM     21  C   UNL     1      15.951  -1.990   0.000  0.00  0.00    +0.000 C 
BRANCH  21  22
ATOM     22  O   UNL     1      16.962  -3.098   0.000  0.00  0.00    +0.000 OA
ATOM     23  C   UNL     1      18.427  -2.776   0.000  0.00  0.00    +0.000 C 
ENDBRANCH  21  22
ENDBRANCH  20  21
ENDBRANCH  19  20
ENDBRANCH  18  19
ENDBRANCH  17  18
ENDBRANCH  16  17
BRANCH  16  24
ATOM     24  C   UNL     1      12.918   1.334   0.000  0.00  0.00    +0.000 C 
BRANCH  24  25
ATOM     25  C   UNL     1      13.929   0.226   0.000  0.00  0.00    +0.000 C 
BRANCH  25  26
ATOM     26  C   UNL     1      15.394   0.548   0.000  0.00  0.00    +0.000 C 
BRANCH  26  27
ATOM     27  C   UNL     1      16.405  -0.560   0.000  0.00  0.00    +0.000 C 
ATOM     28  C   UNL     1      17.870  -0.239   0.000  0.00  0.00    +0.000 C 
ENDBRANCH  26  27
ENDBRANCH  25  26
ENDBRANCH  24  25
ENDBRANCH  16  24
ENDBRANCH  15  16
TORSDOF 15