REMARK  Name = 686349
REMARK  12 active torsions:
REMARK  status: ('A' for Active; 'I' for Inactive)
REMARK    1  A    between atoms: C_1  and  C_9
REMARK    2  A    between atoms: C_2  and  C_13
REMARK    3  A    between atoms: C_9  and  O_11
REMARK    4  A    between atoms: O_11  and  C_12
REMARK    5  A    between atoms: C_13  and  O_15
REMARK    6  A    between atoms: O_15  and  C_16
REMARK    7  A    between atoms: C_19  and  C_27
REMARK    8  A    between atoms: C_20  and  C_23
REMARK    9  A    between atoms: C_23  and  O_25
REMARK   10  A    between atoms: O_25  and  C_26
REMARK   11  A    between atoms: C_27  and  O_29
REMARK   12  A    between atoms: O_29  and  C_30
REMARK                            x       y       z     vdW  Elec       q    Type
REMARK                         _______ _______ _______ _____ _____    ______ ____
ROOT
ATOM      1  C   UNL     1      -3.348   5.250   0.000  0.00  0.00    +0.088 C 
ATOM      2  C   UNL     1      -4.647   6.000   0.000  0.00  0.00    +0.137 C 
ATOM      3  S   UNL     1      -3.434   6.882   0.000  0.00  0.00    -0.089 S 
ATOM      4  C   UNL     1      -3.897   8.308   0.000  0.00  0.00    +0.114 C 
ATOM      9  C   UNL     1      -5.397   8.308   0.000  0.00  0.00    +0.114 C 
ATOM     14  S   UNL     1      -5.861   6.882   0.000  0.00  0.00    -0.089 S 
ATOM     15  C   UNL     1      -5.946   5.250   0.000  0.00  0.00    +0.046 A 
ATOM     16  S   UNL     1      -7.373   5.713   0.000  0.00  0.00    -0.049 S 
ATOM     17  S   UNL     1      -8.254   4.500   0.000  0.00  0.00    -0.009 S 
ATOM     18  C   UNL     1      -7.373   3.287   0.000  0.00  0.00    +0.238 A 
ATOM     19  O   UNL     1      -7.836   1.860   0.000  0.00  0.00    -0.278 OA
ATOM     20  C   UNL     1      -5.946   3.750   0.000  0.00  0.00    +0.080 A 
ATOM     21  S   UNL     1      -4.647   3.000   0.000  0.00  0.00    -0.077 S 
ATOM     26  C   UNL     1      -3.348   3.750   0.000  0.00  0.00    +0.109 C 
ENDROOT
BRANCH   4   5
ATOM      5  C   UNL     1      -3.015   9.522   0.000  0.00  0.00    +0.347 C 
ATOM      8  O   UNL     1      -1.524   9.365   0.000  0.00  0.00    -0.244 OA
BRANCH   5   6
ATOM      6  O   UNL     1      -3.626  10.892   0.000  0.00  0.00    -0.464 OA
ATOM      7  C   UNL     1      -2.744  12.106   0.000  0.00  0.00    +0.280 C 
ENDBRANCH   5   6
ENDBRANCH   4   5
BRANCH   9  10
ATOM     10  C   UNL     1      -6.279   9.522   0.000  0.00  0.00    +0.347 C 
ATOM     13  O   UNL     1      -5.669  10.892   0.000  0.00  0.00    -0.244 OA
BRANCH  10  11
ATOM     11  O   UNL     1      -7.771   9.365   0.000  0.00  0.00    -0.464 OA
ATOM     12  C   UNL     1      -8.381   7.995   0.000  0.00  0.00    +0.280 C 
ENDBRANCH  10  11
ENDBRANCH   9  10
BRANCH   1  22
ATOM     22  C   UNL     1      -2.049   6.000   0.000  0.00  0.00    +0.339 C 
ATOM     25  O   UNL     1      -0.750   5.250   0.000  0.00  0.00    -0.245 OA
BRANCH  22  23
ATOM     23  O   UNL     1      -2.049   7.500   0.000  0.00  0.00    -0.465 OA
ATOM     24  C   UNL     1      -0.750   8.250   0.000  0.00  0.00    +0.280 C 
ENDBRANCH  22  23
ENDBRANCH   1  22
BRANCH  26  27
ATOM     27  C   UNL     1      -2.049   3.000   0.000  0.00  0.00    +0.346 C 
ATOM     30  O   UNL     1      -0.750   3.750   0.000  0.00  0.00    -0.244 OA
BRANCH  27  28
ATOM     28  O   UNL     1      -2.049   1.500   0.000  0.00  0.00    -0.464 OA
ATOM     29  C   UNL     1      -0.750   0.750   0.000  0.00  0.00    +0.280 C 
ENDBRANCH  27  28
ENDBRANCH  26  27
TORSDOF 8