REMARK  Name = 650792
REMARK  3 active torsions:
REMARK  status: ('A' for Active; 'I' for Inactive)
REMARK    1  A    between atoms: N_1  and  S_16
REMARK    2  A    between atoms: S_16  and  C_19
REMARK    3  A    between atoms: C_22  and  C_23
REMARK                            x       y       z     vdW  Elec       q    Type
REMARK                         _______ _______ _______ _____ _____    ______ ____
ROOT
ATOM      1  N   UNL     1      -5.692   7.656   0.000  0.00  0.00    -0.175 NA
ATOM     12  C   UNL     1      -4.393   8.406   0.000  0.00  0.00    +0.120 C 
ATOM     13  C   UNL     1      -3.094   7.656   0.000  0.00  0.00    +0.086 C 
ATOM     14  S   UNL     1      -1.795   8.406   0.000  0.00  0.00    -0.159 S 
ATOM     15  C   UNL     1      -1.795   9.906   0.000  0.00  0.00    +0.080 C 
ATOM     16  C   UNL     1      -3.094  10.656   0.000  0.00  0.00    +0.080 C 
ATOM     17  S   UNL     1      -4.393   9.906   0.000  0.00  0.00    -0.159 S 
ATOM     18  C   UNL     1      -5.692  10.656   0.000  0.00  0.00    +0.080 C 
ATOM     19  C   UNL     1      -6.991   9.906   0.000  0.00  0.00    +0.080 C 
ATOM     20  S   UNL     1      -8.164  10.841   0.000  0.00  0.00    -0.159 S 
ATOM     21  C   UNL     1      -9.626  10.507   0.000  0.00  0.00    +0.080 C 
ATOM     22  C   UNL     1     -10.277   9.156   0.000  0.00  0.00    +0.080 C 
ATOM     23  S   UNL     1      -9.627   7.805   0.000  0.00  0.00    -0.159 S 
ATOM     24  C   UNL     1      -8.164   7.471   0.000  0.00  0.00    +0.086 C 
ATOM     25  C   UNL     1      -6.991   8.406   0.000  0.00  0.00    +0.120 C 
ENDROOT
BRANCH   1   2
ATOM      2  S   UNL     1      -5.692   6.156   0.000  0.00  0.00    +0.061 S 
ATOM      3  O   UNL     1      -7.192   6.156   0.000  0.00  0.00    -0.153 OA
ATOM      4  O   UNL     1      -4.192   6.156   0.000  0.00  0.00    -0.153 OA
BRANCH   2   5
ATOM      5  C   UNL     1      -5.692   4.656   0.000  0.00  0.00    +0.105 A 
ATOM      6  C   UNL     1      -6.991   3.906   0.000  0.00  0.00    +0.029 A 
ATOM      7  C   UNL     1      -6.991   2.406   0.000  0.00  0.00    +0.005 A 
ATOM      8  C   UNL     1      -5.692   1.656   0.000  0.00  0.00    -0.050 A 
ATOM      9  C   UNL     1      -5.692   0.156   0.000  0.00  0.00    +0.044 C 
ATOM     10  C   UNL     1      -4.393   2.406   0.000  0.00  0.00    +0.005 A 
ATOM     11  C   UNL     1      -4.393   3.906   0.000  0.00  0.00    +0.029 A 
ENDBRANCH   2   5
ENDBRANCH   1   2
TORSDOF 2