REMARK  Name = 750
REMARK  9 active torsions:
REMARK  status: ('A' for Active; 'I' for Inactive)
REMARK    1  A    between atoms: S_1  and  O_4
REMARK    2  A    between atoms: S_1  and  C_14
REMARK    3  A    between atoms: O_4  and  C_5
REMARK    4  A    between atoms: C_5  and  C_6
REMARK    5  A    between atoms: C_6  and  C_7
REMARK    6  A    between atoms: C_7  and  C_8
REMARK    7  A    between atoms: C_8  and  O_9
REMARK    8  A    between atoms: O_9  and  S_10
REMARK    9  A    between atoms: S_10  and  C_13
REMARK                            x       y       z     vdW  Elec       q    Type
REMARK                         _______ _______ _______ _____ _____    ______ ____
ROOT
ATOM      5  C   UNL     1      -0.657   0.362   0.000  0.00  0.00    +0.033 C 
ENDROOT
BRANCH   5   4
ATOM      4  C   UNL     1      -1.941  -0.412   0.000  0.00  0.00    +0.193 C 
BRANCH   4   3
ATOM      3  O   UNL     1      -3.254   0.313   0.000  0.00  0.00    -0.239 OA
BRANCH   3   1
ATOM      1  S   UNL     1      -4.539  -0.462   0.000  0.00  0.00    +0.079 S 
ATOM      2  C   UNL     1      -5.313   0.822   0.000  0.00  0.00    +0.228 C 
ATOM     13  O   UNL     1      -3.764  -1.747   0.000  0.00  0.00    -0.147 OA
ATOM     14  O   UNL     1      -5.823  -1.237   0.000  0.00  0.00    -0.147 OA
ENDBRANCH   3   1
ENDBRANCH   4   3
ENDBRANCH   5   4
BRANCH   5   6
ATOM      6  C   UNL     1       0.657  -0.362   0.000  0.00  0.00    +0.033 C 
BRANCH   6   7
ATOM      7  C   UNL     1       1.941   0.412   0.000  0.00  0.00    +0.193 C 
BRANCH   7   8
ATOM      8  O   UNL     1       3.254  -0.313   0.000  0.00  0.00    -0.239 OA
BRANCH   8   9
ATOM      9  S   UNL     1       4.539   0.462   0.000  0.00  0.00    +0.079 S 
ATOM     10  C   UNL     1       5.823   1.237   0.000  0.00  0.00    +0.228 C 
ATOM     11  O   UNL     1       5.313  -0.822   0.000  0.00  0.00    -0.147 OA
ATOM     12  O   UNL     1       3.764   1.747   0.000  0.00  0.00    -0.147 OA
ENDBRANCH   8   9
ENDBRANCH   7   8
ENDBRANCH   6   7
ENDBRANCH   5   6
TORSDOF 7