REMARK  Name = 643599
REMARK  11 active torsions:
REMARK  status: ('A' for Active; 'I' for Inactive)
REMARK    1  A    between atoms: C_1  and  C_7
REMARK    2  A    between atoms: C_4  and  N_17
REMARK    3  A    between atoms: C_6  and  C_31
REMARK    4  A    between atoms: N_8  and  C_9
REMARK    5  A    between atoms: C_12  and  O_15
REMARK    6  A    between atoms: O_15  and  C_16
REMARK    7  A    between atoms: N_17  and  C_18
REMARK    8  A    between atoms: N_17  and  S_22
REMARK    9  A    between atoms: C_18  and  C_19
REMARK   10  A    between atoms: C_19  and  C_20
REMARK   11  A    between atoms: S_22  and  C_25
REMARK                            x       y       z     vdW  Elec       q    Type
REMARK                         _______ _______ _______ _____ _____    ______ ____
ROOT
ATOM      1  C   UNL     1       3.522  11.900   0.000  0.00  0.00    -0.004 A 
ATOM     12  C   UNL     1       4.821  11.150   0.000  0.00  0.00    -0.040 A 
ATOM     13  C   UNL     1       6.120  11.900   0.000  0.00  0.00    +0.044 C 
ATOM     14  C   UNL     1       4.821   9.649   0.000  0.00  0.00    +0.028 A 
ATOM     15  C   UNL     1       3.522   8.899   0.000  0.00  0.00    +0.052 A 
ATOM     30  C   UNL     1       2.223   9.649   0.000  0.00  0.00    +0.025 A 
ATOM     31  C   UNL     1       2.223  11.150   0.000  0.00  0.00    +0.011 A 
ENDROOT
BRANCH   1   2
ATOM      2  C   UNL     1       3.522  13.400   0.000  0.00  0.00    +0.119 C 
ATOM      3  N   UNL     1       2.223  14.150   0.000  0.00  0.00    -0.255 NA
BRANCH   3   4
ATOM      4  C   UNL     1       0.924  13.400   0.000  0.00  0.00    +0.064 A 
ATOM      5  C   UNL     1      -0.375  14.150   0.000  0.00  0.00    +0.031 A 
ATOM      6  C   UNL     1      -1.674  13.400   0.000  0.00  0.00    +0.048 A 
ATOM      7  C   UNL     1      -1.674  11.900   0.000  0.00  0.00    +0.120 A 
ATOM     10  C   UNL     1      -0.375  11.150   0.000  0.00  0.00    +0.048 A 
ATOM     11  C   UNL     1       0.924  11.900   0.000  0.00  0.00    +0.031 A 
BRANCH   7   8
ATOM      8  O   UNL     1      -2.973  11.150   0.000  0.00  0.00    -0.495 OA
ATOM      9  C   UNL     1      -2.973   9.649   0.000  0.00  0.00    +0.277 C 
ENDBRANCH   7   8
ENDBRANCH   3   4
ENDBRANCH   1   2
BRANCH  15  16
ATOM     16  N   UNL     1       3.522   7.399   0.000  0.00  0.00    -0.202 N 
BRANCH  16  17
ATOM     17  S   UNL     1       2.223   6.649   0.000  0.00  0.00    +0.075 S 
ATOM     24  O   UNL     1       1.473   7.949   0.000  0.00  0.00    -0.150 OA
ATOM     25  O   UNL     1       2.973   5.351   0.000  0.00  0.00    -0.150 OA
BRANCH  17  18
ATOM     18  C   UNL     1       0.924   5.899   0.000  0.00  0.00    +0.109 A 
ATOM     19  C   UNL     1       0.924   4.399   0.000  0.00  0.00    +0.029 A 
ATOM     20  C   UNL     1      -0.375   3.650   0.000  0.00  0.00    +0.002 A 
ATOM     21  C   UNL     1      -1.674   4.399   0.000  0.00  0.00    +0.000 A 
ATOM     22  C   UNL     1      -1.674   5.899   0.000  0.00  0.00    +0.002 A 
ATOM     23  C   UNL     1      -0.375   6.649   0.000  0.00  0.00    +0.029 A 
ENDBRANCH  17  18
ENDBRANCH  16  17
BRANCH  16  26
ATOM     26  C   UNL     1       4.821   6.649   0.000  0.00  0.00    +0.146 C 
BRANCH  26  27
ATOM     27  C   UNL     1       6.120   7.399   0.000  0.00  0.00    +0.139 C 
BRANCH  27  28
ATOM     28  C   UNL     1       7.419   6.649   0.000  0.00  0.00    +0.064 C 
ATOM     29  N   UNL     1       8.718   5.899   0.000  0.00  0.00    -0.197 NA
ENDBRANCH  27  28
ENDBRANCH  26  27
ENDBRANCH  16  26
ENDBRANCH  15  16
TORSDOF 9