REMARK  Name = 65937
REMARK  2 active torsions:
REMARK  status: ('A' for Active; 'I' for Inactive)
REMARK    1  A    between atoms: C_4  and  N_16
REMARK    2  A    between atoms: C_17  and  C_19
REMARK                            x       y       z     vdW  Elec       q    Type
REMARK                         _______ _______ _______ _____ _____    ______ ____
ROOT
ATOM      1  O   UNL     1       2.223   2.150   0.000  0.00  0.00    -0.245 OA
ATOM      2  C   UNL     1       2.223   3.650   0.000  0.00  0.00    +0.345 A 
ATOM      3  C   UNL     1       0.924   4.399   0.000  0.00  0.00    +0.067 A 
ATOM      4  C   UNL     1      -0.375   3.650   0.000  0.00  0.00    +0.015 A 
ATOM      5  C   UNL     1      -1.674   4.399   0.000  0.00  0.00    +0.001 A 
ATOM      6  C   UNL     1      -1.674   5.899   0.000  0.00  0.00    +0.001 A 
ATOM      7  C   UNL     1      -0.375   6.649   0.000  0.00  0.00    +0.009 A 
ATOM      8  C   UNL     1       0.924   5.899   0.000  0.00  0.00    -0.000 A 
ATOM      9  C   UNL     1       2.223   6.649   0.000  0.00  0.00    +0.025 A 
ATOM     10  C   UNL     1       3.522   5.899   0.000  0.00  0.00    +0.141 A 
ATOM     11  C   UNL     1       4.821   6.649   0.000  0.00  0.00    +0.070 A 
ATOM     12  C   UNL     1       4.821   8.149   0.000  0.00  0.00    +0.037 A 
ATOM     20  C   UNL     1       3.522   8.899   0.000  0.00  0.00    +0.024 A 
ATOM     21  C   UNL     1       2.223   8.149   0.000  0.00  0.00    +0.014 A 
ATOM     22  O   UNL     1       3.522   4.399   0.000  0.00  0.00    -0.422 OA
ENDROOT
BRANCH  12  13
ATOM     13  N   UNL     1       6.120   8.899   0.000  0.00  0.00    -0.283 N 
ATOM     14  H   UNL     1       6.120   9.884   0.000  0.00  0.00    +0.155 HD
ATOM     15  C   UNL     1       7.419   8.149   0.000  0.00  0.00    +0.250 C 
ATOM     19  O   UNL     1       8.718   8.899   0.000  0.00  0.00    -0.273 OA
BRANCH  15  16
ATOM     16  C   UNL     1       7.419   6.649   0.000  0.00  0.00    +0.256 C 
ATOM     17 CL   UNL     1       6.120   5.899   0.000  0.00  0.00    -0.094 Cl
ATOM     18 CL   UNL     1       8.718   5.899   0.000  0.00  0.00    -0.094 Cl
ENDBRANCH  15  16
ENDBRANCH  12  13
TORSDOF 2