REMARK  Name = 625487
REMARK  1 active torsions:
REMARK  status: ('A' for Active; 'I' for Inactive)
REMARK    1  A    between atoms: C_10  and  C_16
REMARK                            x       y       z     vdW  Elec       q    Type
REMARK                         _______ _______ _______ _____ _____    ______ ____
ROOT
ATOM      1  C   UNL     1      -7.904  -5.430   0.000  0.00  0.00    +0.002 A 
ATOM      2  C   UNL     1      -7.294  -6.800   0.000  0.00  0.00    +0.030 A 
ATOM      3  C   UNL     1      -5.802  -6.957   0.000  0.00  0.00    +0.089 A 
ATOM      4  N   UNL     1      -4.920  -8.171   0.000  0.00  0.00    -0.231 NA
ATOM      5  C   UNL     1      -3.494  -7.707   0.000  0.00  0.00    +0.122 A 
ATOM      6  C   UNL     1      -2.067  -8.171   0.000  0.00  0.00    +0.145 C 
ATOM      7  S   UNL     1      -1.186  -6.957   0.000  0.00  0.00    -0.123 S 
ATOM      8  C   UNL     1      -2.067  -5.743   0.000  0.00  0.00    +0.183 C 
ATOM     17  N   UNL     1      -3.494  -6.207   0.000  0.00  0.00    -0.310 N 
ATOM     18  C   UNL     1      -4.920  -5.743   0.000  0.00  0.00    +0.070 A 
ATOM     19  C   UNL     1      -5.531  -4.373   0.000  0.00  0.00    +0.028 A 
ATOM     20  C   UNL     1      -7.022  -4.216   0.000  0.00  0.00    +0.002 A 
ENDROOT
BRANCH   8   9
ATOM      9  C   UNL     1      -1.604  -4.317   0.000  0.00  0.00    +0.056 A 
ATOM     10  C   UNL     1      -0.137  -4.005   0.000  0.00  0.00    +0.132 A 
ATOM     11  F   UNL     1       0.867  -5.120   0.000  0.00  0.00    -0.205 F 
ATOM     12  C   UNL     1       0.327  -2.578   0.000  0.00  0.00    +0.039 A 
ATOM     13  C   UNL     1      -0.677  -1.464   0.000  0.00  0.00    +0.006 A 
ATOM     14  C   UNL     1      -2.144  -1.776   0.000  0.00  0.00    +0.039 A 
ATOM     15  C   UNL     1      -2.607  -3.202   0.000  0.00  0.00    +0.132 A 
ATOM     16  F   UNL     1      -4.075  -3.514   0.000  0.00  0.00    -0.205 F 
ENDBRANCH   8   9
TORSDOF 1