REMARK  Name = 634863
REMARK  2 active torsions:
REMARK  status: ('A' for Active; 'I' for Inactive)
REMARK    1  A    between atoms: C_2  and  C_8
REMARK    2  A    between atoms: C_8  and  C_9
REMARK                            x       y       z     vdW  Elec       q    Type
REMARK                         _______ _______ _______ _____ _____    ______ ____
ROOT
ATOM      1  S   UNL     1       0.649  -0.990   0.000  0.00  0.00    +0.108 S 
ATOM      2  O   UNL     1      -0.157  -2.255   0.000  0.00  0.00    -0.145 OA
ATOM      3  O   UNL     1      -0.763  -0.485   0.000  0.00  0.00    -0.145 OA
ATOM      4  O   UNL     1       1.703  -2.058   0.000  0.00  0.00    -0.234 OA
ATOM      5  C   UNL     1       3.194  -1.900   0.000  0.00  0.00    +0.224 C 
ATOM      6  C   UNL     1       4.001  -0.635   0.000  0.00  0.00    +0.224 C 
ATOM      7  O   UNL     1       3.515   0.784   0.000  0.00  0.00    -0.234 OA
ATOM      8  S   UNL     1       2.103   1.289   0.000  0.00  0.00    +0.108 S 
ATOM      9  O   UNL     1       2.910   2.554   0.000  0.00  0.00    -0.145 OA
ATOM     10  O   UNL     1       1.049   2.357   0.000  0.00  0.00    -0.145 OA
ATOM     11  C   UNL     1       0.827   0.500   0.000  0.00  0.00    +0.333 C 
ENDROOT
BRANCH  11  12
ATOM     12  C   UNL     1      -0.437   1.306   0.000  0.00  0.00    +0.090 C 
BRANCH  12  13
ATOM     13  C   UNL     1      -1.768   0.614   0.000  0.00  0.00    -0.044 A 
ATOM     14  C   UNL     1      -1.834  -0.884   0.000  0.00  0.00    +0.004 A 
ATOM     15  C   UNL     1      -3.165  -1.576   0.000  0.00  0.00    +0.000 A 
ATOM     16  C   UNL     1      -4.430  -0.769   0.000  0.00  0.00    +0.000 A 
ATOM     17  C   UNL     1      -4.364   0.729   0.000  0.00  0.00    +0.000 A 
ATOM     18  C   UNL     1      -3.033   1.421   0.000  0.00  0.00    +0.004 A 
ENDBRANCH  12  13
ENDBRANCH  11  12
TORSDOF 2