REMARK  Name = 610744
REMARK  3 active torsions:
REMARK  status: ('A' for Active; 'I' for Inactive)
REMARK    1  A    between atoms: C_2  and  C_13
REMARK    2  A    between atoms: N_5  and  C_6
REMARK    3  A    between atoms: C_16  and  N_19
REMARK                            x       y       z     vdW  Elec       q    Type
REMARK                         _______ _______ _______ _____ _____    ______ ____
ROOT
ATOM      1  C   UNL     1       6.584   6.394   0.000  0.00  0.00    +0.121 A 
ATOM      2  N   UNL     1       7.954   5.784   0.000  0.00  0.00    -0.305 N 
ATOM     10  C   UNL     1       7.797   4.293   0.000  0.00  0.00    +0.204 A 
ATOM     11  N   UNL     1       6.330   3.981   0.000  0.00  0.00    -0.235 NA
ATOM     12  C   UNL     1       5.580   5.280   0.000  0.00  0.00    +0.089 A 
ENDROOT
BRANCH   2   3
ATOM      3  C   UNL     1       9.253   6.534   0.000  0.00  0.00    +0.048 A 
ATOM      4  C   UNL     1      10.552   5.784   0.000  0.00  0.00    +0.027 A 
ATOM      5  C   UNL     1      11.851   6.534   0.000  0.00  0.00    +0.022 A 
ATOM      6  C   UNL     1      11.851   8.034   0.000  0.00  0.00    +0.041 A 
ATOM      7 CL   UNL     1      13.150   8.784   0.000  0.00  0.00    -0.084 Cl
ATOM      8  C   UNL     1      10.552   8.784   0.000  0.00  0.00    +0.022 A 
ATOM      9  C   UNL     1       9.253   8.034   0.000  0.00  0.00    +0.027 A 
ENDBRANCH   2   3
BRANCH  12  13
ATOM     13  C   UNL     1       4.088   5.437   0.000  0.00  0.00    +0.002 A 
ATOM     14  C   UNL     1       3.207   4.223   0.000  0.00  0.00    +0.017 A 
ATOM     15  C   UNL     1       1.715   4.380   0.000  0.00  0.00    +0.085 A 
ATOM     16  C   UNL     1       1.105   5.750   0.000  0.00  0.00    +0.273 A 
ATOM     20  C   UNL     1       1.986   6.964   0.000  0.00  0.00    +0.085 A 
ATOM     21  C   UNL     1       3.478   6.807   0.000  0.00  0.00    +0.017 A 
BRANCH  16  17
ATOM     17  N   UNL     1      -0.387   5.907   0.000  0.00  0.00    +0.080 N 
ATOM     18  O   UNL     1      -1.269   4.693   0.000  0.00  0.00    +0.041 OA
ATOM     19  O   UNL     1      -0.997   7.277   0.000  0.00  0.00    -0.576 OA
ENDBRANCH  16  17
ENDBRANCH  12  13
TORSDOF 3