REMARK  Name = 635140
REMARK  4 active torsions:
REMARK  status: ('A' for Active; 'I' for Inactive)
REMARK    1  A    between atoms: C_7  and  C_16
REMARK    2  A    between atoms: C_8  and  C_9
REMARK    3  A    between atoms: C_16  and  O_18
REMARK    4  A    between atoms: O_18  and  C_19
REMARK                            x       y       z     vdW  Elec       q    Type
REMARK                         _______ _______ _______ _____ _____    ______ ____
ROOT
ATOM      1  C   UNL     1      -4.922   0.475   0.000  0.00  0.00    +0.261 A 
ATOM      2  C   UNL     1      -6.221  -0.275   0.000  0.00  0.00    +0.077 A 
ATOM     10  C   UNL     1      -6.221  -1.775   0.000  0.00  0.00    +0.139 A 
ATOM     15  N   UNL     1      -4.922  -2.525   0.000  0.00  0.00    -0.329 N 
ATOM     16  H   UNL     1      -4.922  -3.509   0.000  0.00  0.00    +0.168 HD
ATOM     17  C   UNL     1      -3.623  -1.775   0.000  0.00  0.00    +0.159 A 
ATOM     18  S   UNL     1      -2.324  -2.525   0.000  0.00  0.00    -0.013 S 
ATOM     19  N   UNL     1      -3.623  -0.275   0.000  0.00  0.00    -0.302 N 
ATOM     20  H   UNL     1      -2.770   0.218   0.000  0.00  0.00    +0.171 HD
ATOM     21  O   UNL     1      -4.922   1.976   0.000  0.00  0.00    -0.267 OA
ENDROOT
BRANCH   2   3
ATOM      3  C   UNL     1      -7.520   0.475   0.000  0.00  0.00    -0.010 A 
ATOM      4  C   UNL     1      -7.520   1.976   0.000  0.00  0.00    +0.010 A 
ATOM      5  C   UNL     1      -8.819   2.725   0.000  0.00  0.00    +0.020 A 
ATOM      6  C   UNL     1     -10.118   1.976   0.000  0.00  0.00    +0.041 A 
ATOM      7 CL   UNL     1     -11.417   2.725   0.000  0.00  0.00    -0.084 Cl
ATOM      8  C   UNL     1     -10.118   0.475   0.000  0.00  0.00    +0.020 A 
ATOM      9  C   UNL     1      -8.819  -0.275   0.000  0.00  0.00    +0.010 A 
ENDBRANCH   2   3
BRANCH  10  11
ATOM     11  C   UNL     1      -7.520  -2.525   0.000  0.00  0.00    +0.356 C 
ATOM     14  O   UNL     1      -7.520  -4.024   0.000  0.00  0.00    -0.243 OA
BRANCH  11  12
ATOM     12  O   UNL     1      -8.819  -1.775   0.000  0.00  0.00    -0.463 OA
ATOM     13  C   UNL     1     -10.118  -2.525   0.000  0.00  0.00    +0.280 C 
ENDBRANCH  11  12
ENDBRANCH  10  11
TORSDOF 3