REMARK  Name = 9856
REMARK  17 active torsions:
REMARK  status: ('A' for Active; 'I' for Inactive)
REMARK    1  A    between atoms: C_2  and  C_5
REMARK    2  A    between atoms: C_3  and  C_13
REMARK    3  A    between atoms: C_5  and  C_6
REMARK    4  A    between atoms: C_6  and  C_7
REMARK    5  A    between atoms: C_7  and  C_8
REMARK    6  A    between atoms: C_8  and  C_9
REMARK    7  A    between atoms: C_9  and  C_10
REMARK    8  A    between atoms: C_10  and  C_11
REMARK    9  A    between atoms: C_11  and  C_12
REMARK   10  A    between atoms: C_13  and  C_14
REMARK   11  A    between atoms: C_14  and  C_15
REMARK   12  A    between atoms: C_15  and  C_16
REMARK   13  A    between atoms: C_16  and  C_17
REMARK   14  A    between atoms: C_17  and  C_18
REMARK   15  A    between atoms: C_18  and  C_19
REMARK   16  A    between atoms: C_19  and  C_20
REMARK   17  A    between atoms: C_20  and  O_22
REMARK                            x       y       z     vdW  Elec       q    Type
REMARK                         _______ _______ _______ _____ _____    ______ ____
ROOT
ATOM     11  C   UNL     1       9.274   8.819   0.000  0.00  0.00    +0.027 C 
ENDROOT
BRANCH  11  10
ATOM      1  C   UNL     1       7.024   7.520   0.000  0.00  0.00    -0.031 C 
ATOM     10  C   UNL     1       8.524   7.520   0.000  0.00  0.00    -0.031 C 
BRANCH   1   2
ATOM      2  C   UNL     1       6.274   8.819   0.000  0.00  0.00    +0.027 C 
BRANCH   2   3
ATOM      3  C   UNL     1       4.774   8.819   0.000  0.00  0.00    +0.004 C 
BRANCH   3   4
ATOM      4  C   UNL     1       4.024   7.520   0.000  0.00  0.00    +0.000 C 
BRANCH   4   5
ATOM      5  C   UNL     1       2.525   7.520   0.000  0.00  0.00    +0.000 C 
BRANCH   5   6
ATOM      6  C   UNL     1       1.775   6.221   0.000  0.00  0.00    -0.000 C 
BRANCH   6   7
ATOM      7  C   UNL     1       0.275   6.221   0.000  0.00  0.00    -0.000 C 
BRANCH   7   8
ATOM      8  C   UNL     1      -0.475   4.922   0.000  0.00  0.00    -0.003 C 
ATOM      9  C   UNL     1      -1.976   4.922   0.000  0.00  0.00    +0.004 C 
ENDBRANCH   7   8
ENDBRANCH   6   7
ENDBRANCH   5   6
ENDBRANCH   4   5
ENDBRANCH   3   4
ENDBRANCH   2   3
ENDBRANCH   1   2
ENDBRANCH  11  10
BRANCH  11  12
ATOM     12  C   UNL     1      10.775   8.819   0.000  0.00  0.00    +0.004 C 
BRANCH  12  13
ATOM     13  C   UNL     1      11.525  10.118   0.000  0.00  0.00    +0.000 C 
BRANCH  13  14
ATOM     14  C   UNL     1      13.025  10.118   0.000  0.00  0.00    +0.000 C 
BRANCH  14  15
ATOM     15  C   UNL     1      13.775  11.417   0.000  0.00  0.00    +0.001 C 
BRANCH  15  16
ATOM     16  C   UNL     1      15.275  11.417   0.000  0.00  0.00    +0.011 C 
BRANCH  16  17
ATOM     17  C   UNL     1      16.025  12.716   0.000  0.00  0.00    +0.120 C 
BRANCH  17  18
ATOM     18  C   UNL     1      17.525  12.716   0.000  0.00  0.00    +0.305 C 
ATOM     21  O   UNL     1      18.275  14.015   0.000  0.00  0.00    -0.251 OA
BRANCH  18  19
ATOM     19  O   UNL     1      18.275  11.417   0.000  0.00  0.00    -0.481 OA
ATOM     20  H   UNL     1      17.806  10.605   0.000  0.00  0.00    +0.295 HD
ENDBRANCH  18  19
ENDBRANCH  17  18
ENDBRANCH  16  17
ENDBRANCH  15  16
ENDBRANCH  14  15
ENDBRANCH  13  14
ENDBRANCH  12  13
ENDBRANCH  11  12
TORSDOF 16