REMARK  Name = 17796
REMARK  1 active torsions:
REMARK  status: ('A' for Active; 'I' for Inactive)
REMARK    1  A    between atoms: C_1  and  S_9
REMARK                            x       y       z     vdW  Elec       q    Type
REMARK                         _______ _______ _______ _____ _____    ______ ____
ROOT
ATOM      1  C   UNL     1       2.873   5.524   0.000  0.00  0.00    +0.034 A 
ATOM      2  C   UNL     1       4.172   4.774   0.000  0.00  0.00    +0.150 A 
ATOM      3  N   UNL     1       4.172   3.275   0.000  0.00  0.00    -0.156 NA
ATOM      4  N   UNL     1       2.873   2.525   0.000  0.00  0.00    -0.149 NA
ATOM      5  C   UNL     1       1.574   3.275   0.000  0.00  0.00    +0.094 A 
ATOM      6  C   UNL     1       0.275   2.525   0.000  0.00  0.00    +0.030 A 
ATOM      7  C   UNL     1      -1.025   3.275   0.000  0.00  0.00    +0.002 A 
ATOM      8  C   UNL     1      -1.025   4.774   0.000  0.00  0.00    +0.001 A 
ATOM      9  C   UNL     1       0.275   5.524   0.000  0.00  0.00    +0.011 A 
ATOM     10  C   UNL     1       1.574   4.774   0.000  0.00  0.00    +0.017 A 
ENDROOT
BRANCH   1  11
ATOM     11  S   UNL     1       2.873   7.024   0.000  0.00  0.00    -0.140 S 
ATOM     12  H   UNL     1       4.172   7.774   0.000  0.00  0.00    +0.107 HD
ENDBRANCH   1  11
TORSDOF 1