REMARK  Name = 11128
REMARK  8 active torsions:
REMARK  status: ('A' for Active; 'I' for Inactive)
REMARK    1  A    between atoms: N_4  and  C_7
REMARK    2  A    between atoms: C_7  and  C_8
REMARK    3  A    between atoms: C_7  and  C_9
REMARK    4  A    between atoms: C_7  and  C_10
REMARK    5  A    between atoms: C_10  and  C_11
REMARK    6  A    between atoms: C_11  and  C_12
REMARK    7  A    between atoms: C_11  and  C_13
REMARK    8  A    between atoms: C_11  and  C_14
REMARK                            x       y       z     vdW  Elec       q    Type
REMARK                         _______ _______ _______ _____ _____    ______ ____
ROOT
ATOM      1  N   UNL     1       1.320   1.636   0.000  0.00  0.00    -0.093 NA
ATOM      2  N   UNL     1       1.784   0.209   0.000  0.00  0.00    -0.021 NA
ATOM      3  N   UNL     1       3.284   0.209   0.000  0.00  0.00    -0.042 NA
ATOM      4  N   UNL     1       3.747   1.636   0.000  0.00  0.00    -0.208 N 
ATOM     13  C   UNL     1       2.534   2.517   0.000  0.00  0.00    +0.233 A 
ATOM     14  N   UNL     1       2.534   4.017   0.000  0.00  0.00    -0.326 N 
ATOM     15  H   UNL     1       1.681   4.510   0.000  0.00  0.00    +0.145 HD
ATOM     16  H   UNL     1       3.386   4.510   0.000  0.00  0.00    +0.145 HD
ENDROOT
BRANCH   4   5
ATOM      5  C   UNL     1       5.174   2.099   0.000  0.00  0.00    +0.064 C 
ATOM     11  C   UNL     1       5.637   0.673   0.000  0.00  0.00    +0.036 C 
ATOM     12  C   UNL     1       4.710   3.526   0.000  0.00  0.00    +0.036 C 
BRANCH   5   6
ATOM      6  C   UNL     1       6.600   2.563   0.000  0.00  0.00    +0.036 C 
BRANCH   6   7
ATOM      7  C   UNL     1       7.715   1.559   0.000  0.00  0.00    -0.036 C 
ATOM      8  C   UNL     1       8.830   0.555   0.000  0.00  0.00    +0.010 C 
ATOM      9  C   UNL     1       8.719   2.674   0.000  0.00  0.00    +0.010 C 
ATOM     10  C   UNL     1       6.711   0.444   0.000  0.00  0.00    +0.010 C 
ENDBRANCH   6   7
ENDBRANCH   5   6
ENDBRANCH   4   5
TORSDOF 3