REMARK  Name = 101298
REMARK  5 active torsions:
REMARK  status: ('A' for Active; 'I' for Inactive)
REMARK    1  A    between atoms: N_1  and  C_16
REMARK    2  A    between atoms: C_4  and  N_20
REMARK    3  A    between atoms: C_14  and  C_15
REMARK    4  A    between atoms: C_14  and  N_17
REMARK    5  A    between atoms: C_15  and  C_16
REMARK                            x       y       z     vdW  Elec       q    Type
REMARK                         _______ _______ _______ _____ _____    ______ ____
ROOT
ATOM      5  N   UNL     1       1.473  -7.949   0.000  0.00  0.00    -0.299 N 
ATOM      6  H   UNL     1       1.473  -8.933   0.000  0.00  0.00    +0.150 HD
ATOM      7  C   UNL     1       0.174  -7.199   0.000  0.00  0.00    +0.304 C 
ATOM      8  N   UNL     1      -1.125  -7.949   0.000  0.00  0.00    -0.269 N 
ATOM      9  H   UNL     1      -1.978  -7.456   0.000  0.00  0.00    +0.156 HD
ATOM     20  O   UNL     1       0.174  -5.699   0.000  0.00  0.00    -0.253 OA
ENDROOT
BRANCH   8  10
ATOM     10  C   UNL     1      -1.125  -9.449   0.000  0.00  0.00    +0.042 A 
ATOM     11  C   UNL     1      -2.424 -10.199   0.000  0.00  0.00    +0.003 A 
ATOM     12  C   UNL     1      -3.723  -9.449   0.000  0.00  0.00    +0.010 A 
ATOM     13  C   UNL     1      -5.022 -10.199   0.000  0.00  0.00    +0.001 A 
ATOM     14  C   UNL     1      -5.022 -11.699   0.000  0.00  0.00    +0.001 A 
ATOM     15  C   UNL     1      -3.723 -12.449   0.000  0.00  0.00    +0.008 A 
ATOM     16  C   UNL     1      -2.424 -11.699   0.000  0.00  0.00    -0.016 A 
ATOM     17  C   UNL     1      -1.125 -12.449   0.000  0.00  0.00    +0.008 A 
ATOM     18  C   UNL     1       0.174 -11.699   0.000  0.00  0.00    +0.002 A 
ATOM     19  C   UNL     1       0.174 -10.199   0.000  0.00  0.00    +0.024 A 
ENDBRANCH   8  10
BRANCH   5   4
ATOM      4  C   UNL     1       2.772  -7.199   0.000  0.00  0.00    +0.107 C 
BRANCH   4   3
ATOM      3  C   UNL     1       2.772  -5.699   0.000  0.00  0.00    +0.034 C 
BRANCH   3   2
ATOM      2  C   UNL     1       1.473  -4.949   0.000  0.00  0.00    +0.086 C 
BRANCH   2   1
ATOM      1  N   UNL     1       1.473  -3.449   0.000  0.00  0.00    -0.300 NA
ATOM     21  C   UNL     1       0.723  -2.150   0.000  0.00  0.00    +0.100 C 
ATOM     22  C   UNL     1       2.223  -2.150   0.000  0.00  0.00    +0.100 C 
ENDBRANCH   2   1
ENDBRANCH   3   2
ENDBRANCH   4   3
ENDBRANCH   5   4
TORSDOF 5