REMARK  Name = 135168
REMARK  2 active torsions:
REMARK  status: ('A' for Active; 'I' for Inactive)
REMARK    1  A    between atoms: C_6  and  C_7
REMARK    2  A    between atoms: C_9  and  N_22
REMARK                            x       y       z     vdW  Elec       q    Type
REMARK                         _______ _______ _______ _____ _____    ______ ____
ROOT
ATOM      5  C   UNL     1      -6.455   6.210   0.000  0.00  0.00    +0.116 C 
ATOM      6  C   UNL     1      -7.205   4.910   0.000  0.00  0.00    +0.354 C 
ATOM     10  C   UNL     1      -5.705   4.910   0.000  0.00  0.00    +0.103 C 
ATOM     11  C   UNL     1      -4.334   5.521   0.000  0.00  0.00    -0.022 A 
ATOM     12  C   UNL     1      -3.871   6.947   0.000  0.00  0.00    +0.005 A 
ATOM     13  C   UNL     1      -2.404   7.259   0.000  0.00  0.00    +0.000 A 
ATOM     14  C   UNL     1      -1.400   6.144   0.000  0.00  0.00    +0.001 A 
ATOM     15  C   UNL     1      -1.863   4.718   0.000  0.00  0.00    +0.009 A 
ATOM     16  C   UNL     1      -3.331   4.406   0.000  0.00  0.00    -0.013 A 
ATOM     17  C   UNL     1      -4.081   3.107   0.000  0.00  0.00    -0.013 A 
ATOM     18  C   UNL     1      -3.617   1.680   0.000  0.00  0.00    +0.009 A 
ATOM     19  C   UNL     1      -4.621   0.566   0.000  0.00  0.00    +0.001 A 
ATOM     20  C   UNL     1      -6.088   0.877   0.000  0.00  0.00    +0.000 A 
ATOM     21  C   UNL     1      -6.552   2.304   0.000  0.00  0.00    +0.005 A 
ATOM     22  C   UNL     1      -5.548   3.419   0.000  0.00  0.00    -0.022 A 
ENDROOT
BRANCH   5   4
ATOM      1  C   UNL     1      -6.455  10.710   0.000  0.00  0.00    +0.000 A 
ATOM      2  C   UNL     1      -7.754   9.960   0.000  0.00  0.00    +0.000 A 
ATOM      3  C   UNL     1      -7.754   8.460   0.000  0.00  0.00    +0.004 A 
ATOM      4  C   UNL     1      -6.455   7.710   0.000  0.00  0.00    -0.036 A 
ATOM     23  C   UNL     1      -5.156   8.460   0.000  0.00  0.00    +0.004 A 
ATOM     24  C   UNL     1      -5.156   9.960   0.000  0.00  0.00    +0.000 A 
ENDBRANCH   5   4
BRANCH   6   7
ATOM      7  N   UNL     1      -8.504   4.160   0.000  0.00  0.00    +0.043 N 
ATOM      8  O   UNL     1      -9.803   4.910   0.000  0.00  0.00    +0.035 OA
ATOM      9  O   UNL     1      -8.504   2.660   0.000  0.00  0.00    -0.581 OA
ENDBRANCH   6   7
TORSDOF 2