REMARK  Name = 165883
REMARK  4 active torsions:
REMARK  status: ('A' for Active; 'I' for Inactive)
REMARK    1  A    between atoms: C_2  and  N_11
REMARK    2  A    between atoms: C_12  and  C_14
REMARK    3  A    between atoms: C_14  and  C_15
REMARK    4  A    between atoms: C_15  and  C_17
REMARK                            x       y       z     vdW  Elec       q    Type
REMARK                         _______ _______ _______ _____ _____    ______ ____
ROOT
ATOM      1  C   UNL     1      -7.245  -0.750   0.000  0.00  0.00    +0.031 A 
ATOM      2  C   UNL     1      -8.544  -1.500   0.000  0.00  0.00    -0.016 A 
ATOM      3  C   UNL     1      -9.843  -0.750   0.000  0.00  0.00    +0.008 A 
ATOM      4  C   UNL     1     -11.142  -1.500   0.000  0.00  0.00    +0.001 A 
ATOM      5  C   UNL     1     -11.142  -3.000   0.000  0.00  0.00    +0.001 A 
ATOM      6  C   UNL     1      -9.843  -3.750   0.000  0.00  0.00    +0.008 A 
ATOM      7  C   UNL     1      -8.544  -3.000   0.000  0.00  0.00    -0.018 A 
ATOM      8  C   UNL     1      -7.245  -3.750   0.000  0.00  0.00    +0.010 A 
ATOM      9  C   UNL     1      -5.946  -3.000   0.000  0.00  0.00    +0.024 A 
ATOM     10  C   UNL     1      -5.946  -1.500   0.000  0.00  0.00    +0.034 A 
ENDROOT
BRANCH  10  11
ATOM     11  N   UNL     1      -4.647  -0.750   0.000  0.00  0.00    -0.285 N 
ATOM     12  H   UNL     1      -4.647   0.234   0.000  0.00  0.00    +0.155 HD
ATOM     13  C   UNL     1      -3.348  -1.500   0.000  0.00  0.00    +0.224 C 
ATOM     18  O   UNL     1      -2.049  -0.750   0.000  0.00  0.00    -0.275 OA
BRANCH  13  14
ATOM     14  C   UNL     1      -3.348  -3.000   0.000  0.00  0.00    +0.170 C 
BRANCH  14  15
ATOM     15  C   UNL     1      -2.049  -3.750   0.000  0.00  0.00    +0.139 C 
ATOM     16  C   UNL     1      -2.049  -5.250   0.000  0.00  0.00    +0.086 C 
ATOM     17  O   UNL     1      -0.750  -3.000   0.000  0.00  0.00    -0.297 OA
ENDBRANCH  14  15
ENDBRANCH  13  14
ENDBRANCH  10  11
TORSDOF 3