REMARK  Name = 125197
REMARK  2 active torsions:
REMARK  status: ('A' for Active; 'I' for Inactive)
REMARK    1  A    between atoms: C_3  and  N_9
REMARK    2  A    between atoms: C_6  and  O_8
REMARK                            x       y       z     vdW  Elec       q    Type
REMARK                         _______ _______ _______ _____ _____    ______ ____
ROOT
ATOM      1  C   UNL     1      -3.348  -1.500   0.000  0.00  0.00    +0.393 C 
ATOM      2  N   UNL     1      -3.348  -3.000   0.000  0.00  0.00    -0.186 N 
ATOM      3  H   UNL     1      -4.201  -3.492   0.000  0.00  0.00    +0.271 HD
ATOM      4  C   UNL     1      -2.049  -3.750   0.000  0.00  0.00    +0.385 C 
ATOM      5  N   UNL     1      -2.049  -5.250   0.000  0.00  0.00    -0.129 NA
ATOM      6  H   UNL     1      -2.902  -5.742   0.000  0.00  0.00    +0.306 HD
ATOM      7  N   UNL     1      -0.750  -3.000   0.000  0.00  0.00    -0.289 N 
ATOM      8  H   UNL     1      -0.750  -2.016   0.000  0.00  0.00    +0.255 HD
ATOM      9  H   UNL     1       0.103  -3.492   0.000  0.00  0.00    +0.255 HD
ATOM     10  N   UNL     1      -2.049  -0.750   0.000  0.00  0.00    -0.129 NA
ATOM     11  H   UNL     1      -1.196  -1.242   0.000  0.00  0.00    +0.306 HD
ATOM     12  N   UNL     1      -4.647  -0.750   0.000  0.00  0.00    -0.243 N 
ATOM     13  H   UNL     1      -4.647   0.234   0.000  0.00  0.00    +0.265 HD
ENDROOT
BRANCH  12  14
ATOM     14  C   UNL     1      -5.946  -1.500   0.000  0.00  0.00    +0.100 A 
ATOM     15  C   UNL     1      -5.946  -3.000   0.000  0.00  0.00    +0.046 A 
ATOM     16  C   UNL     1      -7.245  -3.750   0.000  0.00  0.00    +0.049 A 
ATOM     17  C   UNL     1      -8.544  -3.000   0.000  0.00  0.00    +0.117 A 
ATOM     20  C   UNL     1      -8.544  -1.500   0.000  0.00  0.00    +0.049 A 
ATOM     21  C   UNL     1      -7.245  -0.750   0.000  0.00  0.00    +0.046 A 
BRANCH  17  18
ATOM     18  O   UNL     1      -9.843  -3.750   0.000  0.00  0.00    -0.507 OA
ATOM     19  H   UNL     1     -10.655  -3.281   0.000  0.00  0.00    +0.292 HD
ENDBRANCH  17  18
ENDBRANCH  12  14
TORSDOF 2