REMARK  Name = 170001
REMARK  1 active torsions:
REMARK  status: ('A' for Active; 'I' for Inactive)
REMARK    1  A    between atoms: C_8  and  O_15
REMARK                            x       y       z     vdW  Elec       q    Type
REMARK                         _______ _______ _______ _____ _____    ______ ____
ROOT
ATOM      1  O   UNL     1       4.680   4.395   0.000  0.00  0.00    -0.283 OA
ATOM      2  C   UNL     1       4.346   2.932   0.000  0.00  0.00    +0.234 A 
ATOM      3  C   UNL     1       2.883   2.598   0.000  0.00  0.00    +0.164 A 
ATOM      6  C   UNL     1       2.232   1.247   0.000  0.00  0.00    +0.049 A 
ATOM      7  C   UNL     1       2.883  -0.105   0.000  0.00  0.00    +0.004 A 
ATOM      8  C   UNL     1       4.346  -0.438   0.000  0.00  0.00    +0.005 A 
ATOM      9  C   UNL     1       5.519   0.497   0.000  0.00  0.00    -0.019 A 
ATOM     10  C   UNL     1       6.817  -0.253   0.000  0.00  0.00    +0.157 C 
ATOM     11  C   UNL     1       8.117   0.497   0.000  0.00  0.00    +0.319 C 
ATOM     12  O   UNL     1       9.416  -0.253   0.000  0.00  0.00    -0.250 OA
ATOM     13  O   UNL     1       8.117   1.997   0.000  0.00  0.00    -0.389 OA
ATOM     14  C   UNL     1       6.817   2.747   0.000  0.00  0.00    +0.351 C 
ATOM     15  O   UNL     1       6.817   4.247   0.000  0.00  0.00    -0.244 OA
ATOM     16  C   UNL     1       5.519   1.997   0.000  0.00  0.00    +0.113 A 
ENDROOT
BRANCH   3   4
ATOM      4  O   UNL     1       1.948   3.771   0.000  0.00  0.00    -0.503 OA
ATOM      5  H   UNL     1       2.290   4.643   0.000  0.00  0.00    +0.292 HD
ENDBRANCH   3   4
TORSDOF 1