REMARK  Name = 114414
REMARK  6 active torsions:
REMARK  status: ('A' for Active; 'I' for Inactive)
REMARK    1  A    between atoms: N_1  and  C_16
REMARK    2  A    between atoms: N_2  and  C_7
REMARK    3  A    between atoms: N_5  and  C_10
REMARK    4  A    between atoms: C_8  and  C_25
REMARK    5  A    between atoms: C_19  and  S_22
REMARK    6  A    between atoms: N_21  and  S_22
REMARK                            x       y       z     vdW  Elec       q    Type
REMARK                         _______ _______ _______ _____ _____    ______ ____
ROOT
ATOM      1  N   UNL     1      -6.314  -3.632   0.000  0.00  0.00    -0.154 NA
ATOM      2  N   UNL     1      -7.195  -4.846   0.000  0.00  0.00    -0.168 NA
ENDROOT
BRANCH   2   3
ATOM      3  C   UNL     1      -6.585  -6.216   0.000  0.00  0.00    +0.261 C 
ATOM      4  C   UNL     1      -7.335  -7.515   0.000  0.00  0.00    +0.070 C 
ATOM      5  C   UNL     1      -8.827  -7.672   0.000  0.00  0.00    +0.065 C 
ATOM      6  N   UNL     1      -6.332  -8.630   0.000  0.00  0.00    -0.179 NA
ATOM      7  N   UNL     1      -4.961  -8.020   0.000  0.00  0.00    -0.159 N 
ATOM     14  C   UNL     1      -5.118  -6.528   0.000  0.00  0.00    +0.271 C 
ATOM     15  O   UNL     1      -4.003  -5.524   0.000  0.00  0.00    -0.271 OA
BRANCH   7   8
ATOM      8  C   UNL     1      -3.662  -8.770   0.000  0.00  0.00    +0.060 A 
ATOM      9  C   UNL     1      -3.662 -10.270   0.000  0.00  0.00    +0.025 A 
ATOM     10  C   UNL     1      -2.363 -11.020   0.000  0.00  0.00    +0.002 A 
ATOM     11  C   UNL     1      -1.064 -10.270   0.000  0.00  0.00    +0.000 A 
ATOM     12  C   UNL     1      -1.064  -8.770   0.000  0.00  0.00    +0.002 A 
ATOM     13  C   UNL     1      -2.363  -8.020   0.000  0.00  0.00    +0.025 A 
ENDBRANCH   7   8
ENDBRANCH   2   3
BRANCH   1  16
ATOM     16  C   UNL     1      -6.924  -2.262   0.000  0.00  0.00    +0.086 A 
ATOM     17  C   UNL     1      -8.416  -2.105   0.000  0.00  0.00    +0.031 A 
ATOM     18  C   UNL     1      -9.026  -0.735   0.000  0.00  0.00    +0.030 A 
ATOM     19  C   UNL     1      -8.144   0.479   0.000  0.00  0.00    +0.105 A 
ATOM     26  C   UNL     1      -6.652   0.322   0.000  0.00  0.00    +0.030 A 
ATOM     27  C   UNL     1      -6.042  -1.048   0.000  0.00  0.00    +0.031 A 
BRANCH  19  20
ATOM     20  S   UNL     1      -8.754   1.849   0.000  0.00  0.00    +0.056 S 
ATOM     21  O   UNL     1     -10.124   1.239   0.000  0.00  0.00    -0.153 OA
ATOM     22  O   UNL     1      -7.384   2.459   0.000  0.00  0.00    -0.153 OA
BRANCH  20  23
ATOM     23  N   UNL     1      -9.364   3.220   0.000  0.00  0.00    -0.204 NA
ATOM     24  H   UNL     1     -10.379   3.326   0.000  0.00  0.00    +0.144 HD
ATOM     25  H   UNL     1      -8.765   4.045   0.000  0.00  0.00    +0.144 HD
ENDBRANCH  20  23
ENDBRANCH  19  20
ENDBRANCH   1  16
TORSDOF 5