REMARK  Name = 133356
REMARK  2 active torsions:
REMARK  status: ('A' for Active; 'I' for Inactive)
REMARK    1  A    between atoms: C_11  and  C_12
REMARK    2  A    between atoms: C_16  and  C_18
REMARK                            x       y       z     vdW  Elec       q    Type
REMARK                         _______ _______ _______ _____ _____    ______ ____
ROOT
ATOM      5  C   UNL     1       2.923   4.054   0.000  0.00  0.00    +0.021 A 
ATOM      6  C   UNL     1       4.222   3.304   0.000  0.00  0.00    +0.012 A 
ATOM      7  C   UNL     1       5.521   4.054   0.000  0.00  0.00    +0.012 A 
ATOM      8  C   UNL     1       5.521   5.554   0.000  0.00  0.00    +0.021 A 
ATOM      9  C   UNL     1       4.222   6.304   0.000  0.00  0.00    +0.012 A 
ATOM     16  C   UNL     1       2.923   5.554   0.000  0.00  0.00    +0.012 A 
ENDROOT
BRANCH   5   4
ATOM      1  N   UNL     1      -0.750   2.799   0.000  0.00  0.00    -0.046 NA
ATOM      2  N   UNL     1       0.000   1.500   0.000  0.00  0.00    -0.023 NA
ATOM      3  N   UNL     1       1.467   1.812   0.000  0.00  0.00    -0.108 NA
ATOM      4  C   UNL     1       1.624   3.304   0.000  0.00  0.00    +0.179 A 
ATOM     17  N   UNL     1       0.254   3.914   0.000  0.00  0.00    -0.239 N 
ATOM     18  H   UNL     1      -0.058   5.381   0.000  0.00  0.00    +0.192 HD
ENDBRANCH   5   4
BRANCH   8  10
ATOM     10  C   UNL     1       6.820   6.304   0.000  0.00  0.00    +0.179 A 
ATOM     11  N   UNL     1       6.977   7.795   0.000  0.00  0.00    -0.239 N 
ATOM     12  N   UNL     1       8.444   8.107   0.000  0.00  0.00    -0.046 NA
ATOM     13  N   UNL     1       9.194   6.808   0.000  0.00  0.00    -0.023 NA
ATOM     14  H   UNL     1       5.862   8.799   0.000  0.00  0.00    +0.192 HD
ATOM     15  N   UNL     1       8.191   5.694   0.000  0.00  0.00    -0.108 NA
ENDBRANCH   8  10
TORSDOF 2