REMARK  Name = 102288
REMARK  1 active torsions:
REMARK  status: ('A' for Active; 'I' for Inactive)
REMARK    1  A    between atoms: N_14  and  N_15
REMARK                            x       y       z     vdW  Elec       q    Type
REMARK                         _______ _______ _______ _____ _____    ______ ____
ROOT
ATOM      1  C   UNL     1       9.285   5.270   0.000  0.00  0.00    +0.031 C 
ATOM      2  C   UNL     1       7.858   4.806   0.000  0.00  0.00    +0.004 C 
ATOM      3  C   UNL     1       7.858   3.307   0.000  0.00  0.00    +0.024 C 
ATOM      4  C   UNL     1       6.559   2.557   0.000  0.00  0.00    +0.042 C 
ATOM      5  C   UNL     1       5.260   3.307   0.000  0.00  0.00    +0.041 C 
ATOM      6  N   UNL     1       3.961   2.557   0.000  0.00  0.00    -0.188 NA
ATOM     14  C   UNL     1       5.260   4.806   0.000  0.00  0.00    +0.056 C 
ATOM     15  C   UNL     1       7.425   4.056   0.000  0.00  0.00    +0.014 C 
ATOM     16  C   UNL     1       9.285   2.843   0.000  0.00  0.00    -0.027 C 
ATOM     17  C   UNL     1       6.559   5.556   0.000  0.00  0.00    -0.001 C 
ATOM     18  C   UNL     1      10.166   4.056   0.000  0.00  0.00    -0.030 C 
ENDROOT
BRANCH   6   7
ATOM      7  N   UNL     1       2.662   3.307   0.000  0.00  0.00    -0.191 N 
ATOM      8  H   UNL     1       2.662   4.291   0.000  0.00  0.00    +0.179 HD
ATOM      9  C   UNL     1       1.363   2.557   0.000  0.00  0.00    +0.317 C 
ATOM     10  O   UNL     1       1.363   1.057   0.000  0.00  0.00    -0.251 OA
ATOM     11  N   UNL     1       0.064   3.307   0.000  0.00  0.00    -0.312 N 
ATOM     12  H   UNL     1      -0.789   2.814   0.000  0.00  0.00    +0.147 HD
ATOM     13  H   UNL     1       0.064   4.291   0.000  0.00  0.00    +0.147 HD
ENDBRANCH   6   7
TORSDOF 1