REMARK  Name = 196148
REMARK  4 active torsions:
REMARK  status: ('A' for Active; 'I' for Inactive)
REMARK    1  A    between atoms: N_1  and  C_8
REMARK    2  A    between atoms: N_1  and  C_9
REMARK    3  A    between atoms: N_1  and  S_10
REMARK    4  A    between atoms: S_10  and  N_13
REMARK                            x       y       z     vdW  Elec       q    Type
REMARK                         _______ _______ _______ _____ _____    ______ ____
ROOT
ATOM      3  N   UNL     1       4.647   1.299   0.000  0.00  0.00    -0.190 N 
ATOM      4  H   UNL     1       4.647   0.315   0.000  0.00  0.00    +0.176 HD
ATOM      5  C   UNL     1       5.946   2.049   0.000  0.00  0.00    +0.139 A 
ATOM      6  N   UNL     1       7.245   1.299   0.000  0.00  0.00    -0.239 NA
ATOM      7  C   UNL     1       8.544   2.049   0.000  0.00  0.00    +0.113 A 
ATOM      8  C   UNL     1       8.544   3.549   0.000  0.00  0.00    +0.020 A 
ATOM      9  C   UNL     1       7.245   4.299   0.000  0.00  0.00    +0.005 A 
ATOM     10  C   UNL     1       5.946   3.549   0.000  0.00  0.00    +0.045 A 
ENDROOT
BRANCH   3   2
ATOM      2  S   UNL     1       3.348   2.049   0.000  0.00  0.00    +0.112 S 
ATOM     11  O   UNL     1       4.098   3.348   0.000  0.00  0.00    -0.138 OA
ATOM     12  O   UNL     1       2.598   0.750   0.000  0.00  0.00    -0.138 OA
BRANCH   2   1
ATOM      1  N   UNL     1       2.049   2.799   0.000  0.00  0.00    -0.170 NA
ATOM     13  C   UNL     1       0.750   2.049   0.000  0.00  0.00    +0.132 C 
ATOM     14  C   UNL     1       2.049   4.299   0.000  0.00  0.00    +0.132 C 
ENDBRANCH   2   1
ENDBRANCH   3   2
TORSDOF 2