REMARK  Name = 112965
REMARK  5 active torsions:
REMARK  status: ('A' for Active; 'I' for Inactive)
REMARK    1  A    between atoms: C_4  and  C_20
REMARK    2  A    between atoms: C_10  and  C_19
REMARK    3  A    between atoms: C_12  and  N_17
REMARK    4  A    between atoms: C_14  and  C_15
REMARK    5  A    between atoms: N_17  and  O_18
REMARK                            x       y       z     vdW  Elec       q    Type
REMARK                         _______ _______ _______ _____ _____    ______ ____
ROOT
ATOM      7  C   UNL     1      -7.520  -5.524   0.000  0.00  0.00    +0.064 A 
ATOM      8  C   UNL     1      -7.520  -7.024   0.000  0.00  0.00    +0.026 A 
ATOM      9  C   UNL     1      -6.221  -7.774   0.000  0.00  0.00    +0.010 A 
ATOM     10  C   UNL     1      -4.922  -7.024   0.000  0.00  0.00    -0.025 A 
ATOM     19  C   UNL     1      -4.922  -5.524   0.000  0.00  0.00    +0.010 A 
ATOM     20  C   UNL     1      -6.221  -4.774   0.000  0.00  0.00    +0.026 A 
ENDROOT
BRANCH   7   4
ATOM      3  C   UNL     1     -10.118  -5.524   0.000  0.00  0.00    +0.274 C 
ATOM      4  N   UNL     1      -8.819  -4.774   0.000  0.00  0.00    -0.149 N 
ATOM     21  O   UNL     1     -11.417  -4.774   0.000  0.00  0.00    -0.270 OA
BRANCH   3   2
ATOM      1  F   UNL     1     -11.417  -7.774   0.000  0.00  0.00    -0.239 F 
ATOM      2  C   UNL     1     -10.118  -7.024   0.000  0.00  0.00    +0.311 C 
ENDBRANCH   3   2
BRANCH   4   5
ATOM      5  O   UNL     1      -8.819  -3.275   0.000  0.00  0.00    -0.288 OA
ATOM      6  H   UNL     1      -7.979  -2.790   0.000  0.00  0.00    +0.242 HD
ENDBRANCH   4   5
ENDBRANCH   7   4
BRANCH  10  11
ATOM     11  C   UNL     1      -3.623  -7.774   0.000  0.00  0.00    +0.008 C 
ATOM     12  C   UNL     1      -3.623  -9.274   0.000  0.00  0.00    +0.008 C 
BRANCH  12  13
ATOM     13  C   UNL     1      -2.324 -10.025   0.000  0.00  0.00    -0.025 A 
ATOM     14  C   UNL     1      -2.324 -11.525   0.000  0.00  0.00    +0.008 A 
ATOM     15  C   UNL     1      -1.025 -12.275   0.000  0.00  0.00    +0.001 A 
ATOM     16  C   UNL     1       0.275 -11.525   0.000  0.00  0.00    +0.000 A 
ATOM     17  C   UNL     1       0.275 -10.025   0.000  0.00  0.00    +0.001 A 
ATOM     18  C   UNL     1      -1.025  -9.274   0.000  0.00  0.00    +0.008 A 
ENDBRANCH  12  13
ENDBRANCH  10  11
TORSDOF 5