REMARK  Name = 134674
REMARK  0 active torsions:
REMARK  status: ('A' for Active; 'I' for Inactive)
REMARK                            x       y       z     vdW  Elec       q    Type
REMARK                         _______ _______ _______ _____ _____    ______ ____
ROOT
ATOM      1 CL   UNL     1       2.324   2.525   0.000  0.00  0.00    -0.080 Cl
ATOM      2  C   UNL     1       3.623   1.775   0.000  0.00  0.00    +0.081 A 
ATOM      3  C   UNL     1       3.623   0.275   0.000  0.00  0.00    +0.081 A 
ATOM      4  C   UNL     1       4.922  -0.475   0.000  0.00  0.00    +0.088 A 
ATOM      5 CL   UNL     1       4.922  -1.976   0.000  0.00  0.00    -0.080 Cl
ATOM      6  C   UNL     1       6.221   0.275   0.000  0.00  0.00    +0.107 A 
ATOM      7  N   UNL     1       7.647  -0.189   0.000  0.00  0.00    -0.256 N 
ATOM      8  N   UNL     1       8.529   1.025   0.000  0.00  0.00    -0.067 NA
ATOM      9  N   UNL     1       7.647   2.238   0.000  0.00  0.00    -0.128 NA
ATOM     10  H   UNL     1       8.111  -1.616   0.000  0.00  0.00    +0.191 HD
ATOM     11  C   UNL     1       6.221   1.775   0.000  0.00  0.00    +0.134 A 
ATOM     12 CL   UNL     1       2.324  -0.475   0.000  0.00  0.00    -0.080 Cl
ATOM     13  C   UNL     1       4.922   2.525   0.000  0.00  0.00    +0.090 A 
ATOM     14 CL   UNL     1       4.922   4.024   0.000  0.00  0.00    -0.080 Cl
ENDROOT
TORSDOF 0