REMARK  Name = 201634
REMARK  7 active torsions:
REMARK  status: ('A' for Active; 'I' for Inactive)
REMARK    1  A    between atoms: C_3  and  N_18
REMARK    2  A    between atoms: C_4  and  O_19
REMARK    3  A    between atoms: C_8  and  N_15
REMARK    4  A    between atoms: C_12  and  O_13
REMARK    5  A    between atoms: O_13  and  C_14
REMARK    6  A    between atoms: N_15  and  C_16
REMARK    7  A    between atoms: C_16  and  N_18
REMARK                            x       y       z     vdW  Elec       q    Type
REMARK                         _______ _______ _______ _____ _____    ______ ____
ROOT
ATOM      5  C   UNL     1      -2.049   7.500   0.000  0.00  0.00    +0.139 C 
ATOM      6  S   UNL     1      -0.750   8.250   0.000  0.00  0.00    -0.018 S 
ENDROOT
BRANCH   5   3
ATOM      3  N   UNL     1      -3.348   8.250   0.000  0.00  0.00    -0.297 N 
ATOM      4  H   UNL     1      -4.201   7.758   0.000  0.00  0.00    +0.154 HD
BRANCH   3   2
ATOM      1  C   UNL     1      -4.647  10.500   0.000  0.00  0.00    +0.027 A 
ATOM      2  C   UNL     1      -3.348   9.750   0.000  0.00  0.00    +0.033 A 
ATOM     17  C   UNL     1      -2.049  10.500   0.000  0.00  0.00    +0.027 A 
ATOM     18  C   UNL     1      -2.049  12.000   0.000  0.00  0.00    +0.047 A 
ATOM     19  C   UNL     1      -3.348  12.750   0.000  0.00  0.00    +0.117 A 
ATOM     22  C   UNL     1      -4.647  12.000   0.000  0.00  0.00    +0.047 A 
BRANCH  19  20
ATOM     20  O   UNL     1      -3.348  14.250   0.000  0.00  0.00    -0.507 OA
ATOM     21  H   UNL     1      -2.537  14.719   0.000  0.00  0.00    +0.292 HD
ENDBRANCH  19  20
ENDBRANCH   3   2
ENDBRANCH   5   3
BRANCH   5   7
ATOM      7  N   UNL     1      -2.049   6.000   0.000  0.00  0.00    -0.297 N 
ATOM      8  H   UNL     1      -1.196   5.508   0.000  0.00  0.00    +0.154 HD
BRANCH   7   9
ATOM      9  C   UNL     1      -3.348   5.250   0.000  0.00  0.00    +0.036 A 
ATOM     10  C   UNL     1      -3.348   3.750   0.000  0.00  0.00    +0.069 A 
ATOM     11  C   UNL     1      -4.647   3.000   0.000  0.00  0.00    +0.122 A 
ATOM     14  C   UNL     1      -5.946   3.750   0.000  0.00  0.00    +0.046 A 
ATOM     15  C   UNL     1      -5.946   5.250   0.000  0.00  0.00    +0.005 A 
ATOM     16  C   UNL     1      -4.647   6.000   0.000  0.00  0.00    +0.023 A 
BRANCH  11  12
ATOM     12  O   UNL     1      -4.647   1.500   0.000  0.00  0.00    -0.495 OA
ATOM     13  C   UNL     1      -5.946   0.750   0.000  0.00  0.00    +0.277 C 
ENDBRANCH  11  12
ENDBRANCH   7   9
ENDBRANCH   5   7
TORSDOF 6