REMARK  Name = 129220
REMARK  5 active torsions:
REMARK  status: ('A' for Active; 'I' for Inactive)
REMARK    1  A    between atoms: C_11  and  O_14
REMARK    2  A    between atoms: C_12  and  C_15
REMARK    3  A    between atoms: O_13  and  C_15
REMARK    4  A    between atoms: C_17  and  C_18
REMARK    5  A    between atoms: C_18  and  O_20
REMARK                            x       y       z     vdW  Elec       q    Type
REMARK                         _______ _______ _______ _____ _____    ______ ____
ROOT
ATOM      1  C   UNL     1       3.200   1.857   0.000  0.00  0.00    +0.136 C 
ATOM      2  C   UNL     1       3.120   3.355   0.000  0.00  0.00    +0.302 C 
ATOM      5  O   UNL     1       1.783   4.035   0.000  0.00  0.00    -0.251 OA
ENDROOT
BRANCH   2   3
ATOM      3  O   UNL     1       4.378   4.173   0.000  0.00  0.00    -0.481 OA
ATOM      4  H   UNL     1       5.213   3.748   0.000  0.00  0.00    +0.295 HD
ENDBRANCH   2   3
TORSDOF 1