REMARK  Name = 158549
REMARK  2 active torsions:
REMARK  status: ('A' for Active; 'I' for Inactive)
REMARK    1  A    between atoms: N_2  and  C_5
REMARK    2  A    between atoms: C_8  and  N_20
REMARK                            x       y       z     vdW  Elec       q    Type
REMARK                         _______ _______ _______ _____ _____    ______ ____
ROOT
ATOM      1  N   UNL     1       7.541   0.914   0.000  0.00  0.00    -0.146 NA
ATOM      2  C   UNL     1       6.074   1.226   0.000  0.00  0.00    +0.121 A 
ATOM      3  C   UNL     1       5.324  -0.073   0.000  0.00  0.00    +0.114 A 
ATOM      4  C   UNL     1       3.824  -0.073   0.000  0.00  0.00    +0.032 A 
ATOM      5  C   UNL     1       3.074   1.226   0.000  0.00  0.00    +0.011 A 
ATOM      6  C   UNL     1       3.824   2.525   0.000  0.00  0.00    -0.016 A 
ATOM      7  C   UNL     1       3.074   3.824   0.000  0.00  0.00    +0.008 A 
ATOM      8  C   UNL     1       3.824   5.123   0.000  0.00  0.00    +0.001 A 
ATOM      9  C   UNL     1       5.324   5.123   0.000  0.00  0.00    +0.001 A 
ATOM     10  C   UNL     1       6.074   3.824   0.000  0.00  0.00    +0.011 A 
ATOM     11  N   UNL     1       6.327  -1.188   0.000  0.00  0.00    -0.147 NA
ATOM     12  C   UNL     1       5.324   2.525   0.000  0.00  0.00    +0.011 A 
ATOM     13  N   UNL     1       7.698  -0.578   0.000  0.00  0.00    -0.147 N 
ENDROOT
BRANCH  13  14
ATOM     14  C   UNL     1       8.997  -1.328   0.000  0.00  0.00    +0.107 A 
ATOM     15  C   UNL     1       8.997  -2.828   0.000  0.00  0.00    +0.052 A 
ATOM     19  C   UNL     1      10.296  -3.578   0.000  0.00  0.00    +0.025 A 
ATOM     20  C   UNL     1      11.595  -2.828   0.000  0.00  0.00    +0.002 A 
ATOM     21  C   UNL     1      11.595  -1.328   0.000  0.00  0.00    +0.002 A 
ATOM     22  C   UNL     1      10.296  -0.578   0.000  0.00  0.00    +0.031 A 
BRANCH  15  16
ATOM     16  N   UNL     1       7.698  -3.578   0.000  0.00  0.00    -0.356 N 
ATOM     17  H   UNL     1       7.698  -4.563   0.000  0.00  0.00    +0.142 HD
ATOM     18  H   UNL     1       6.845  -3.086   0.000  0.00  0.00    +0.142 HD
ENDBRANCH  15  16
ENDBRANCH  13  14
TORSDOF 2