REMARK  Name = 106570
REMARK  3 active torsions:
REMARK  status: ('A' for Active; 'I' for Inactive)
REMARK    1  A    between atoms: C_3  and  C_8
REMARK    2  A    between atoms: C_3  and  N_15
REMARK    3  A    between atoms: C_4  and  C_14
REMARK                            x       y       z     vdW  Elec       q    Type
REMARK                         _______ _______ _______ _____ _____    ______ ____
ROOT
ATOM      1  N   UNL     1      -2.980  -5.587   0.000  0.00  0.00    -0.217 NA
ATOM      2  C   UNL     1      -2.980  -4.087   0.000  0.00  0.00    +0.130 A 
ATOM      3  C   UNL     1      -4.279  -3.337   0.000  0.00  0.00    +0.088 C 
ATOM      4  N   UNL     1      -1.681  -3.337   0.000  0.00  0.00    -0.215 NA
ATOM      5  C   UNL     1      -0.382  -4.087   0.000  0.00  0.00    +0.143 A 
ATOM      6  N   UNL     1       1.045  -3.623   0.000  0.00  0.00    -0.346 N 
ATOM      7  H   UNL     1       1.349  -2.687   0.000  0.00  0.00    +0.167 HD
ATOM      8  C   UNL     1       1.926  -4.837   0.000  0.00  0.00    +0.085 A 
ATOM      9  C   UNL     1       1.045  -6.050   0.000  0.00  0.00    +0.032 A 
ATOM     10  C   UNL     1      -0.382  -5.587   0.000  0.00  0.00    +0.058 A 
ATOM     11  C   UNL     1      -1.681  -6.337   0.000  0.00  0.00    +0.132 A 
ATOM     12  N   UNL     1      -1.681  -7.837   0.000  0.00  0.00    -0.324 N 
ATOM     13  H   UNL     1      -0.828  -8.329   0.000  0.00  0.00    +0.148 HD
ENDROOT
BRANCH  12  14
ATOM     14  C   UNL     1      -2.980  -8.586   0.000  0.00  0.00    +0.138 C 
BRANCH  14  15
ATOM     15  C   UNL     1      -4.279  -7.837   0.000  0.00  0.00    -0.030 A 
ATOM     16  C   UNL     1      -4.279  -6.337   0.000  0.00  0.00    +0.005 A 
ATOM     17  C   UNL     1      -5.578  -5.587   0.000  0.00  0.00    +0.000 A 
ATOM     18  C   UNL     1      -6.877  -6.337   0.000  0.00  0.00    +0.000 A 
ATOM     19  C   UNL     1      -6.877  -7.837   0.000  0.00  0.00    +0.000 A 
ATOM     20  C   UNL     1      -5.578  -8.587   0.000  0.00  0.00    +0.005 A 
ENDBRANCH  14  15
ENDBRANCH  12  14
TORSDOF 2