REMARK  Name = 116702
REMARK  4 active torsions:
REMARK  status: ('A' for Active; 'I' for Inactive)
REMARK    1  A    between atoms: C_12  and  C_13
REMARK    2  A    between atoms: C_15  and  C_17
REMARK    3  A    between atoms: C_18  and  C_21
REMARK    4  A    between atoms: C_27  and  C_28
REMARK                            x       y       z     vdW  Elec       q    Type
REMARK                         _______ _______ _______ _____ _____    ______ ____
ROOT
ATOM      1  O   UNL     1       3.542  -6.132   0.000  0.00  0.00    -0.433 OA
ATOM      2  C   UNL     1       4.005  -7.558   0.000  0.00  0.00    +0.163 A 
ATOM      3  C   UNL     1       5.505  -7.558   0.000  0.00  0.00    +0.118 A 
ATOM     11  N   UNL     1       5.969  -6.132   0.000  0.00  0.00    -0.207 NA
ATOM     18  C   UNL     1       4.755  -5.250   0.000  0.00  0.00    +0.248 A 
ENDROOT
BRANCH  18  19
ATOM     19  C   UNL     1       4.755  -3.750   0.000  0.00  0.00    +0.133 A 
ATOM     20  C   UNL     1       6.054  -3.000   0.000  0.00  0.00    +0.013 A 
ATOM     21  C   UNL     1       7.353  -3.750   0.000  0.00  0.00    +0.011 A 
ATOM     22  C   UNL     1       8.652  -3.000   0.000  0.00  0.00    +0.001 A 
ATOM     23  C   UNL     1       8.652  -1.500   0.000  0.00  0.00    +0.001 A 
ATOM     24  C   UNL     1       7.353  -0.750   0.000  0.00  0.00    +0.008 A 
ATOM     25  C   UNL     1       6.054  -1.500   0.000  0.00  0.00    -0.014 A 
ATOM     26  C   UNL     1       4.755  -0.750   0.000  0.00  0.00    +0.028 A 
ATOM     27  C   UNL     1       3.456  -1.500   0.000  0.00  0.00    +0.112 A 
ATOM     28  N   UNL     1       3.456  -3.000   0.000  0.00  0.00    -0.250 NA
ENDBRANCH  18  19
BRANCH   3   4
ATOM      4  C   UNL     1       6.387  -8.772   0.000  0.00  0.00    +0.004 A 
ATOM      5  C   UNL     1       5.777 -10.142   0.000  0.00  0.00    +0.010 A 
ATOM      6  C   UNL     1       6.658 -11.356   0.000  0.00  0.00    +0.004 A 
ATOM      7  C   UNL     1       8.150 -11.199   0.000  0.00  0.00    -0.050 A 
ATOM      8  C   UNL     1       9.032 -12.412   0.000  0.00  0.00    +0.044 C 
ATOM      9  C   UNL     1       8.760  -9.829   0.000  0.00  0.00    +0.004 A 
ATOM     10  C   UNL     1       7.879  -8.615   0.000  0.00  0.00    +0.010 A 
ENDBRANCH   3   4
BRANCH   2  12
ATOM     12  C   UNL     1       3.123  -8.772   0.000  0.00  0.00    +0.019 A 
ATOM     13  C   UNL     1       3.734 -10.142   0.000  0.00  0.00    +0.011 A 
ATOM     14  C   UNL     1       2.852 -11.356   0.000  0.00  0.00    +0.001 A 
ATOM     15  C   UNL     1       1.360 -11.199   0.000  0.00  0.00    +0.000 A 
ATOM     16  C   UNL     1       0.750  -9.829   0.000  0.00  0.00    +0.001 A 
ATOM     17  C   UNL     1       1.632  -8.615   0.000  0.00  0.00    +0.011 A 
ENDBRANCH   2  12
TORSDOF 3