REMARK  Name = 137399
REMARK  3 active torsions:
REMARK  status: ('A' for Active; 'I' for Inactive)
REMARK    1  A    between atoms: C_1  and  C_12
REMARK    2  A    between atoms: C_1  and  C_14
REMARK    3  A    between atoms: N_20  and  O_21
REMARK                            x       y       z     vdW  Elec       q    Type
REMARK                         _______ _______ _______ _____ _____    ______ ____
ROOT
ATOM     11  C   UNL     1       5.834  -3.819   0.000  0.00  0.00    +0.012 A 
ATOM     12  C   UNL     1       4.386  -3.431   0.000  0.00  0.00    -0.008 A 
ATOM     13  C   UNL     1       3.325  -4.491   0.000  0.00  0.00    +0.009 A 
ATOM     14  C   UNL     1       1.876  -4.103   0.000  0.00  0.00    +0.001 A 
ATOM     15  C   UNL     1       1.488  -2.654   0.000  0.00  0.00    +0.004 A 
ATOM     16  C   UNL     1       2.548  -1.594   0.000  0.00  0.00    -0.039 A 
ATOM     17  C   UNL     1       2.548  -0.094   0.000  0.00  0.00    +0.040 C 
ATOM     18  C   UNL     1       3.997   0.295   0.000  0.00  0.00    +0.040 C 
ATOM     19  C   UNL     1       5.058  -0.921   0.000  0.00  0.00    -0.039 A 
ATOM     20  C   UNL     1       6.507  -1.309   0.000  0.00  0.00    +0.005 A 
ATOM     21  C   UNL     1       3.997  -1.982   0.000  0.00  0.00    -0.011 A 
ATOM     22  C   UNL     1       6.895  -2.758   0.000  0.00  0.00    +0.011 A 
ENDROOT
BRANCH  11   1
ATOM      1  C   UNL     1       6.223  -5.268   0.000  0.00  0.00    +0.117 C 
ATOM      2  N   UNL     1       7.672  -5.656   0.000  0.00  0.00    -0.086 NA
BRANCH   1   5
ATOM      5  C   UNL     1       5.162  -6.329   0.000  0.00  0.00    +0.004 A 
ATOM      6  C   UNL     1       3.713  -5.940   0.000  0.00  0.00    +0.010 A 
ATOM      7  C   UNL     1       2.652  -7.001   0.000  0.00  0.00    +0.001 A 
ATOM      8  C   UNL     1       3.041  -8.450   0.000  0.00  0.00    +0.000 A 
ATOM      9  C   UNL     1       4.489  -8.838   0.000  0.00  0.00    +0.001 A 
ATOM     10  C   UNL     1       5.550  -7.777   0.000  0.00  0.00    +0.010 A 
ENDBRANCH   1   5
BRANCH   2   3
ATOM      3  O   UNL     1       8.732  -4.595   0.000  0.00  0.00    -0.409 OA
ATOM      4  H   UNL     1       9.637  -4.838   0.000  0.00  0.00    +0.328 HD
ENDBRANCH   2   3
ENDBRANCH  11   1
TORSDOF 3