REMARK  Name = 101679
REMARK  6 active torsions:
REMARK  status: ('A' for Active; 'I' for Inactive)
REMARK    1  A    between atoms: C_2  and  N_16
REMARK    2  A    between atoms: C_6  and  O_11
REMARK    3  A    between atoms: C_7  and  N_20
REMARK    4  A    between atoms: O_11  and  C_12
REMARK    5  A    between atoms: C_13  and  C_15
REMARK    6  A    between atoms: C_17  and  C_19
REMARK                            x       y       z     vdW  Elec       q    Type
REMARK                         _______ _______ _______ _____ _____    ______ ____
ROOT
ATOM      1  N   UNL     1      -2.049   7.500   0.000  0.00  0.00    -0.253 NA
ATOM      2  C   UNL     1      -3.348   6.750   0.000  0.00  0.00    +0.094 A 
ATOM      3  C   UNL     1      -3.348   5.250   0.000  0.00  0.00    +0.027 A 
ATOM      4  C   UNL     1      -2.049   4.500   0.000  0.00  0.00    +0.013 A 
ATOM      5  C   UNL     1      -0.750   5.250   0.000  0.00  0.00    +0.020 A 
ATOM      6  C   UNL     1      -4.647   4.500   0.000  0.00  0.00    +0.085 A 
ATOM     12  C   UNL     1      -5.946   5.250   0.000  0.00  0.00    +0.144 A 
ATOM     15  C   UNL     1      -5.946   6.750   0.000  0.00  0.00    +0.073 A 
ATOM     16  C   UNL     1      -4.647   7.500   0.000  0.00  0.00    +0.063 A 
ATOM     22  C   UNL     1      -0.750   6.750   0.000  0.00  0.00    +0.111 A 
ENDROOT
BRANCH   6   7
ATOM      7  N   UNL     1      -4.647   3.000   0.000  0.00  0.00    -0.282 N 
ATOM      8  H   UNL     1      -3.795   2.508   0.000  0.00  0.00    +0.155 HD
ATOM      9  C   UNL     1      -5.946   2.250   0.000  0.00  0.00    +0.214 C 
ATOM     10  C   UNL     1      -5.946   0.750   0.000  0.00  0.00    +0.109 C 
ATOM     11  O   UNL     1      -7.245   3.000   0.000  0.00  0.00    -0.276 OA
ENDBRANCH   6   7
BRANCH  16  17
ATOM     17  N   UNL     1      -4.647   9.000   0.000  0.00  0.00    -0.284 N 
ATOM     18  H   UNL     1      -3.795   9.492   0.000  0.00  0.00    +0.155 HD
ATOM     19  C   UNL     1      -5.946   9.750   0.000  0.00  0.00    +0.214 C 
ATOM     20  C   UNL     1      -7.245   9.000   0.000  0.00  0.00    +0.109 C 
ATOM     21  O   UNL     1      -5.946  11.250   0.000  0.00  0.00    -0.276 OA
ENDBRANCH  16  17
BRANCH  12  13
ATOM     13  O   UNL     1      -7.245   4.500   0.000  0.00  0.00    -0.493 OA
ATOM     14  C   UNL     1      -8.544   5.250   0.000  0.00  0.00    +0.277 C 
ENDBRANCH  12  13
TORSDOF 3