REMARK  Name = 10865
REMARK  1 active torsions:
REMARK  status: ('A' for Active; 'I' for Inactive)
REMARK    1  A    between atoms: AS_1  and  O_15
REMARK                            x       y       z     vdW  Elec       q    Type
REMARK                         _______ _______ _______ _____ _____    ______ ____
ROOT
ATOM      1 AS   UNL     1      -4.082  -2.875   0.000  0.00  0.00    +0.000 As
ATOM      4  C   UNL     1      -4.963  -4.088   0.000  0.00  0.00    +0.000 A 
ATOM      5  C   UNL     1      -6.455  -4.245   0.000  0.00  0.00    +0.000 A 
ATOM      6  C   UNL     1      -7.065  -5.616   0.000  0.00  0.00    +0.000 A 
ATOM      7  C   UNL     1      -6.184  -6.829   0.000  0.00  0.00    +0.000 A 
ATOM      8  C   UNL     1      -4.692  -6.672   0.000  0.00  0.00    +0.000 A 
ATOM      9  C   UNL     1      -4.082  -5.302   0.000  0.00  0.00    +0.000 A 
ATOM     10  C   UNL     1      -2.655  -4.838   0.000  0.00  0.00    +0.000 A 
ATOM     11  C   UNL     1      -1.356  -5.588   0.000  0.00  0.00    +0.000 A 
ATOM     12  C   UNL     1      -0.057  -4.838   0.000  0.00  0.00    +0.000 A 
ATOM     13  C   UNL     1      -0.057  -3.338   0.000  0.00  0.00    +0.000 A 
ATOM     14  C   UNL     1      -1.356  -2.588   0.000  0.00  0.00    +0.000 A 
ATOM     15  C   UNL     1      -2.655  -3.338   0.000  0.00  0.00    +0.000 A 
ATOM     16  O   UNL     1      -3.472  -1.505   0.000  0.00  0.00    +0.000 OA
ENDROOT
BRANCH   1   2
ATOM      2  O   UNL     1      -5.381  -2.125   0.000  0.00  0.00    +0.000 OA
ATOM      3  H   UNL     1      -5.381  -1.155   0.000  0.00  0.00    +0.000 HD
ENDBRANCH   1   2
TORSDOF 1