REMARK  Name = 151888
REMARK  12 active torsions:
REMARK  status: ('A' for Active; 'I' for Inactive)
REMARK    1  A    between atoms: C_4  and  C_21
REMARK    2  A    between atoms: C_5  and  N_22
REMARK    3  A    between atoms: C_12  and  O_17
REMARK    4  A    between atoms: C_14  and  C_20
REMARK    5  A    between atoms: O_17  and  C_18
REMARK    6  A    between atoms: C_18  and  C_19
REMARK    7  A    between atoms: N_22  and  C_23
REMARK    8  A    between atoms: N_22  and  C_26
REMARK    9  A    between atoms: C_23  and  C_24
REMARK   10  A    between atoms: C_24  and  C_25
REMARK   11  A    between atoms: C_26  and  C_27
REMARK   12  A    between atoms: C_27  and  C_28
REMARK                            x       y       z     vdW  Elec       q    Type
REMARK                         _______ _______ _______ _____ _____    ______ ____
ROOT
ATOM     14  C   UNL     1      -6.563   9.632   0.000  0.00  0.00    +0.028 C 
ATOM     15  C   UNL     1      -6.563   8.132   0.000  0.00  0.00    +0.010 C 
ENDROOT
BRANCH  14  13
ATOM      1  N   UNL     1      -7.862  11.882   0.000  0.00  0.00    -0.247 NA
ATOM      2  C   UNL     1      -9.161  12.632   0.000  0.00  0.00    +0.072 A 
ATOM      3  C   UNL     1     -10.460  11.882   0.000  0.00  0.00    +0.004 A 
ATOM      4  C   UNL     1     -11.759  12.632   0.000  0.00  0.00    +0.055 A 
ATOM      5  C   UNL     1     -11.759  14.132   0.000  0.00  0.00    +0.121 A 
ATOM      9  C   UNL     1     -10.460  14.882   0.000  0.00  0.00    +0.048 A 
ATOM     10  C   UNL     1     -10.460  10.382   0.000  0.00  0.00    +0.012 A 
ATOM     11  C   UNL     1      -9.161   9.632   0.000  0.00  0.00    +0.028 A 
ATOM     12  C   UNL     1      -9.161  14.132   0.000  0.00  0.00    +0.032 A 
ATOM     13  C   UNL     1      -7.862  10.382   0.000  0.00  0.00    +0.065 A 
BRANCH   5   6
ATOM      6  O   UNL     1     -13.059  14.882   0.000  0.00  0.00    -0.492 OA
BRANCH   6   7
ATOM      7  C   UNL     1     -13.059  16.382   0.000  0.00  0.00    +0.225 C 
ATOM      8  C   UNL     1     -14.358  17.132   0.000  0.00  0.00    +0.048 C 
ENDBRANCH   6   7
ENDBRANCH   5   6
ENDBRANCH  14  13
BRANCH  15  16
ATOM     16  C   UNL     1      -5.264   7.382   0.000  0.00  0.00    -0.025 A 
ATOM     17  C   UNL     1      -5.264   5.882   0.000  0.00  0.00    +0.010 A 
ATOM     18  C   UNL     1      -3.965   5.132   0.000  0.00  0.00    +0.024 A 
ATOM     19  C   UNL     1      -2.666   5.882   0.000  0.00  0.00    +0.030 A 
ATOM     27  C   UNL     1      -2.666   7.382   0.000  0.00  0.00    +0.024 A 
ATOM     28  C   UNL     1      -3.965   8.132   0.000  0.00  0.00    +0.010 A 
BRANCH  19  20
ATOM     20  N   UNL     1      -1.367   5.132   0.000  0.00  0.00    -0.330 N 
BRANCH  20  21
ATOM     21  C   UNL     1      -1.367   3.632   0.000  0.00  0.00    +0.105 C 
BRANCH  21  22
ATOM     22  C   UNL     1      -2.666   2.882   0.000  0.00  0.00    +0.015 C 
ATOM     23  C   UNL     1      -3.965   3.632   0.000  0.00  0.00    +0.005 C 
ENDBRANCH  21  22
ENDBRANCH  20  21
BRANCH  20  24
ATOM     24  C   UNL     1      -0.068   5.882   0.000  0.00  0.00    +0.105 C 
BRANCH  24  25
ATOM     25  C   UNL     1       1.231   5.132   0.000  0.00  0.00    +0.015 C 
ATOM     26  C   UNL     1       2.530   5.882   0.000  0.00  0.00    +0.005 C 
ENDBRANCH  24  25
ENDBRANCH  20  24
ENDBRANCH  19  20
ENDBRANCH  15  16
TORSDOF 9