REMARK  Name = 201863
REMARK  5 active torsions:
REMARK  status: ('A' for Active; 'I' for Inactive)
REMARK    1  A    between atoms: C_5  and  C_8
REMARK    2  A    between atoms: C_12  and  C_23
REMARK    3  A    between atoms: C_17  and  C_21
REMARK    4  A    between atoms: C_23  and  C_24
REMARK    5  A    between atoms: C_23  and  N_25
REMARK                            x       y       z     vdW  Elec       q    Type
REMARK                         _______ _______ _______ _____ _____    ______ ____
ROOT
ATOM     10  C   UNL     1      -8.544  -2.250   0.000  0.00  0.00    +0.100 C 
ATOM     11  C   UNL     1      -8.544  -0.750   0.000  0.00  0.00    +0.033 C 
ENDROOT
BRANCH  10  12
ATOM     12  C   UNL     1      -7.245  -3.000   0.000  0.00  0.00    -0.027 A 
ATOM     13  C   UNL     1      -7.245  -4.500   0.000  0.00  0.00    +0.006 A 
ATOM     14  C   UNL     1      -5.946  -5.250   0.000  0.00  0.00    +0.009 A 
ATOM     15  C   UNL     1      -4.647  -4.500   0.000  0.00  0.00    -0.018 A 
ATOM     16  C   UNL     1      -4.647  -3.000   0.000  0.00  0.00    +0.009 A 
ATOM     23  C   UNL     1      -5.946  -2.250   0.000  0.00  0.00    +0.006 A 
BRANCH  15  17
ATOM     17  C   UNL     1      -3.348  -5.250   0.000  0.00  0.00    -0.018 A 
ATOM     18  C   UNL     1      -3.348  -6.750   0.000  0.00  0.00    +0.008 A 
ATOM     19  C   UNL     1      -2.049  -7.500   0.000  0.00  0.00    +0.001 A 
ATOM     20  C   UNL     1      -0.750  -6.750   0.000  0.00  0.00    +0.000 A 
ATOM     21  C   UNL     1      -0.750  -5.250   0.000  0.00  0.00    +0.001 A 
ATOM     22  C   UNL     1      -2.049  -4.500   0.000  0.00  0.00    +0.008 A 
ENDBRANCH  15  17
ENDBRANCH  10  12
BRANCH  10   8
ATOM      7  C   UNL     1     -11.142  -2.250   0.000  0.00  0.00    +0.245 C 
ATOM      8  N   UNL     1      -9.843  -3.000   0.000  0.00  0.00    -0.305 N 
ATOM      9  H   UNL     1      -9.843  -3.984   0.000  0.00  0.00    +0.150 HD
ATOM     24  O   UNL     1     -11.142  -0.750   0.000  0.00  0.00    -0.270 OA
BRANCH   7   6
ATOM      1 CL   UNL     1     -16.339  -2.250   0.000  0.00  0.00    -0.082 Cl
ATOM      2  C   UNL     1     -15.039  -3.000   0.000  0.00  0.00    +0.060 A 
ATOM      3  C   UNL     1     -15.039  -4.500   0.000  0.00  0.00    +0.059 A 
ATOM      4  C   UNL     1     -13.740  -5.250   0.000  0.00  0.00    +0.022 A 
ATOM      5  C   UNL     1     -12.441  -4.500   0.000  0.00  0.00    +0.014 A 
ATOM      6  C   UNL     1     -12.441  -3.000   0.000  0.00  0.00    +0.038 A 
ATOM     25 CL   UNL     1     -16.339  -5.250   0.000  0.00  0.00    -0.082 Cl
ATOM     26  C   UNL     1     -13.740  -2.250   0.000  0.00  0.00    +0.034 A 
ENDBRANCH   7   6
ENDBRANCH  10   8
TORSDOF 4