REMARK  Name = 142446
REMARK  4 active torsions:
REMARK  status: ('A' for Active; 'I' for Inactive)
REMARK    1  A    between atoms: N_1  and  C_11
REMARK    2  A    between atoms: C_18  and  C_20
REMARK    3  A    between atoms: N_23  and  C_24
REMARK    4  A    between atoms: C_24  and  C_25
REMARK                            x       y       z     vdW  Elec       q    Type
REMARK                         _______ _______ _______ _____ _____    ______ ____
ROOT
ATOM      1  N   UNL     1      -8.948   6.686   0.000  0.00  0.00    -0.315 N 
ATOM      2  C   UNL     1      -8.066   5.473   0.000  0.00  0.00    +0.104 A 
ATOM      3  C   UNL     1      -8.948   4.259   0.000  0.00  0.00    +0.045 A 
ATOM     15  C   UNL     1     -10.375   4.723   0.000  0.00  0.00    +0.011 A 
ATOM     16  C   UNL     1     -11.674   3.973   0.000  0.00  0.00    +0.011 A 
ATOM     17  C   UNL     1     -12.973   4.723   0.000  0.00  0.00    +0.001 A 
ATOM     18  C   UNL     1     -12.973   6.223   0.000  0.00  0.00    +0.002 A 
ATOM     19  C   UNL     1     -11.674   6.973   0.000  0.00  0.00    +0.027 A 
ATOM     20  C   UNL     1     -10.375   6.223   0.000  0.00  0.00    +0.054 A 
ENDROOT
BRANCH   3   4
ATOM      4  C   UNL     1      -8.485   2.833   0.000  0.00  0.00    +0.168 A 
ATOM      5  N   UNL     1      -7.017   2.521   0.000  0.00  0.00    -0.195 NA
ATOM      6  C   UNL     1      -6.554   1.094   0.000  0.00  0.00    +0.220 A 
ATOM      7  N   UNL     1      -5.087   0.782   0.000  0.00  0.00    -0.314 N 
ATOM      8  H   UNL     1      -4.428   1.514   0.000  0.00  0.00    +0.149 HD
ATOM     11  N   UNL     1      -7.558  -0.020   0.000  0.00  0.00    -0.184 NA
ATOM     12  C   UNL     1      -9.025   0.291   0.000  0.00  0.00    +0.228 A 
ATOM     13 CL   UNL     1     -10.028  -0.823   0.000  0.00  0.00    -0.041 Cl
ATOM     14  N   UNL     1      -9.488   1.718   0.000  0.00  0.00    -0.197 NA
BRANCH   7   9
ATOM      9  C   UNL     1      -4.623  -0.644   0.000  0.00  0.00    +0.101 C 
ATOM     10  C   UNL     1      -3.156  -0.956   0.000  0.00  0.00    +0.024 C 
ENDBRANCH   7   9
ENDBRANCH   3   4
BRANCH   1  21
ATOM     21  C   UNL     1      -8.485   8.113   0.000  0.00  0.00    +0.047 A 
ATOM     22  C   UNL     1      -9.488   9.228   0.000  0.00  0.00    +0.026 A 
ATOM     23  C   UNL     1      -9.025  10.654   0.000  0.00  0.00    +0.002 A 
ATOM     24  C   UNL     1      -7.558  10.966   0.000  0.00  0.00    +0.000 A 
ATOM     25  C   UNL     1      -6.554   9.851   0.000  0.00  0.00    +0.002 A 
ATOM     26  C   UNL     1      -7.017   8.425   0.000  0.00  0.00    +0.026 A 
ENDBRANCH   1  21
TORSDOF 3