REMARK  Name = 163823
REMARK  3 active torsions:
REMARK  status: ('A' for Active; 'I' for Inactive)
REMARK    1  A    between atoms: N_4  and  C_17
REMARK    2  A    between atoms: C_8  and  C_10
REMARK    3  A    between atoms: C_19  and  C_21
REMARK                            x       y       z     vdW  Elec       q    Type
REMARK                         _______ _______ _______ _____ _____    ______ ____
ROOT
ATOM      6  C   UNL     1     -10.965   0.983   0.000  0.00  0.00    +0.091 A 
ATOM      7  C   UNL     1     -10.965  -0.517   0.000  0.00  0.00    +0.140 A 
ATOM      8  N   UNL     1      -9.666  -1.267   0.000  0.00  0.00    -0.246 NA
ATOM      9  C   UNL     1      -8.367  -0.517   0.000  0.00  0.00    +0.149 A 
ATOM     10  C   UNL     1      -6.941  -0.980   0.000  0.00  0.00    +0.175 A 
ATOM     11  N   UNL     1      -6.477  -2.407   0.000  0.00  0.00    -0.260 N 
ATOM     12  H   UNL     1      -7.136  -3.138   0.000  0.00  0.00    +0.157 HD
ATOM     13  C   UNL     1      -5.010  -2.719   0.000  0.00  0.00    +0.323 C 
ATOM     18  O   UNL     1      -4.006  -1.604   0.000  0.00  0.00    -0.266 OA
ATOM     19  N   UNL     1      -6.059   0.233   0.000  0.00  0.00    -0.152 NA
ATOM     20  N   UNL     1      -6.941   1.447   0.000  0.00  0.00    -0.246 N 
ATOM     21  C   UNL     1      -6.477   2.873   0.000  0.00  0.00    +0.175 C 
ATOM     22  C   UNL     1      -8.367   0.983   0.000  0.00  0.00    +0.179 A 
ATOM     23  N   UNL     1      -9.666   1.733   0.000  0.00  0.00    -0.225 NA
ENDROOT
BRANCH   6   5
ATOM      1 CL   UNL     1     -16.162   3.983   0.000  0.00  0.00    -0.084 Cl
ATOM      2  C   UNL     1     -14.862   3.233   0.000  0.00  0.00    +0.041 A 
ATOM      3  C   UNL     1     -14.862   1.733   0.000  0.00  0.00    +0.020 A 
ATOM      4  C   UNL     1     -13.563   0.983   0.000  0.00  0.00    +0.011 A 
ATOM      5  C   UNL     1     -12.264   1.733   0.000  0.00  0.00    +0.002 A 
ATOM     24  C   UNL     1     -12.264   3.233   0.000  0.00  0.00    +0.011 A 
ATOM     25  C   UNL     1     -13.563   3.983   0.000  0.00  0.00    +0.020 A 
ENDBRANCH   6   5
BRANCH  13  14
ATOM     14  C   UNL     1      -4.546  -4.145   0.000  0.00  0.00    +0.470 C 
ATOM     15  F   UNL     1      -4.083  -5.572   0.000  0.00  0.00    -0.162 F 
ATOM     16  F   UNL     1      -3.120  -3.682   0.000  0.00  0.00    -0.162 F 
ATOM     17  F   UNL     1      -5.973  -4.609   0.000  0.00  0.00    -0.162 F 
ENDBRANCH  13  14
TORSDOF 2