REMARK  Name = 1751
REMARK  9 active torsions:
REMARK  status: ('A' for Active; 'I' for Inactive)
REMARK    1  A    between atoms: C_2  and  C_8
REMARK    2  A    between atoms: C_3  and  O_7
REMARK    3  A    between atoms: C_4  and  C_12
REMARK    4  A    between atoms: C_8  and  O_9
REMARK    5  A    between atoms: C_8  and  C_10
REMARK    6  A    between atoms: C_10  and  O_11
REMARK    7  A    between atoms: C_12  and  O_13
REMARK    8  A    between atoms: C_12  and  C_14
REMARK    9  A    between atoms: C_14  and  O_15
REMARK                            x       y       z     vdW  Elec       q    Type
REMARK                         _______ _______ _______ _____ _____    ______ ____
ROOT
ATOM      1  O   UNL     1      -5.946  -1.500   0.000  0.00  0.00    -0.346 OA
ATOM      2  C   UNL     1      -4.647  -0.750   0.000  0.00  0.00    +0.324 C 
ATOM      3  O   UNL     1      -3.348  -1.500   0.000  0.00  0.00    -0.346 OA
ATOM      4  C   UNL     1      -3.348  -3.000   0.000  0.00  0.00    +0.183 C 
ATOM     11  C   UNL     1      -4.647  -3.750   0.000  0.00  0.00    +0.177 C 
ATOM     14  C   UNL     1      -5.946  -3.000   0.000  0.00  0.00    +0.183 C 
ENDROOT
BRANCH  11  12
ATOM     12  O   UNL     1      -4.647  -5.250   0.000  0.00  0.00    -0.386 OA
ATOM     13  H   UNL     1      -5.487  -5.735   0.000  0.00  0.00    +0.210 HD
ENDBRANCH  11  12
BRANCH   4   5
ATOM      5  C   UNL     1      -2.049  -3.750   0.000  0.00  0.00    +0.171 C 
BRANCH   5   9
ATOM      9  O   UNL     1      -0.750  -3.000   0.000  0.00  0.00    -0.387 OA
ATOM     10  H   UNL     1       0.090  -3.485   0.000  0.00  0.00    +0.210 HD
ENDBRANCH   5   9
BRANCH   5   6
ATOM      6  C   UNL     1      -2.049  -5.250   0.000  0.00  0.00    +0.189 C 
BRANCH   6   7
ATOM      7  O   UNL     1      -3.348  -6.000   0.000  0.00  0.00    -0.392 OA
ATOM      8  H   UNL     1      -4.188  -5.515   0.000  0.00  0.00    +0.210 HD
ENDBRANCH   6   7
ENDBRANCH   5   6
ENDBRANCH   4   5
BRANCH  14  15
ATOM     15  C   UNL     1      -7.245  -3.750   0.000  0.00  0.00    +0.171 C 
BRANCH  15  19
ATOM     19  O   UNL     1      -8.544  -3.000   0.000  0.00  0.00    -0.387 OA
ATOM     20  H   UNL     1      -8.544  -2.030   0.000  0.00  0.00    +0.210 HD
ENDBRANCH  15  19
BRANCH  15  16
ATOM     16  C   UNL     1      -7.245  -5.250   0.000  0.00  0.00    +0.189 C 
BRANCH  16  17
ATOM     17  O   UNL     1      -5.946  -6.000   0.000  0.00  0.00    -0.392 OA
ATOM     18  H   UNL     1      -5.946  -6.970   0.000  0.00  0.00    +0.210 HD
ENDBRANCH  16  17
ENDBRANCH  15  16
ENDBRANCH  14  15
TORSDOF 9