REMARK  Name = 197008
REMARK  11 active torsions:
REMARK  status: ('A' for Active; 'I' for Inactive)
REMARK    1  A    between atoms: C_13  and  N_14
REMARK    2  A    between atoms: N_14  and  C_15
REMARK    3  A    between atoms: C_15  and  C_16
REMARK    4  A    between atoms: C_16  and  C_17
REMARK    5  A    between atoms: C_17  and  C_18
REMARK    6  A    between atoms: C_18  and  C_19
REMARK    7  A    between atoms: C_19  and  C_20
REMARK    8  A    between atoms: C_20  and  C_21
REMARK    9  A    between atoms: C_21  and  C_22
REMARK   10  A    between atoms: C_22  and  N_23
REMARK   11  A    between atoms: N_23  and  C_24
REMARK                            x       y       z     vdW  Elec       q    Type
REMARK                         _______ _______ _______ _____ _____    ______ ____
ROOT
ATOM     11  C   UNL     1       8.262 -15.213   0.000  0.00  0.00    +0.000 C 
ENDROOT
BRANCH  11  10
ATOM     10  C   UNL     1       7.950 -13.746   0.000  0.00  0.00    +0.002 C 
BRANCH  10   9
ATOM      9  C   UNL     1       9.065 -12.742   0.000  0.00  0.00    +0.019 C 
BRANCH   9   8
ATOM      8  C   UNL     1       8.753 -11.275   0.000  0.00  0.00    +0.101 C 
BRANCH   8   6
ATOM      6  N   UNL     1       9.868 -10.271   0.000  0.00  0.00    -0.349 N 
ATOM      7  H   UNL     1       9.748  -9.294   0.000  0.00  0.00    +0.146 HD
BRANCH   6   5
ATOM      1  O   UNL     1      12.075 -14.755   0.000  0.00  0.00    -0.461 OA
ATOM      2  C   UNL     1      10.575 -14.807   0.000  0.00  0.00    +0.237 C 
ATOM      3  C   UNL     1      10.062 -13.398   0.000  0.00  0.00    +0.084 C 
ATOM      4  C   UNL     1      11.244 -12.475   0.000  0.00  0.00    +0.053 C 
ATOM      5  C   UNL     1      11.192 -10.975   0.000  0.00  0.00    +0.078 C 
ATOM     25  C   UNL     1      12.488 -13.313   0.000  0.00  0.00    +0.336 C 
ATOM     26  O   UNL     1      13.898 -12.800   0.000  0.00  0.00    -0.245 OA
ENDBRANCH   6   5
ENDBRANCH   8   6
ENDBRANCH   9   8
ENDBRANCH  10   9
ENDBRANCH  11  10
BRANCH  11  12
ATOM     12  C   UNL     1       7.147 -16.217   0.000  0.00  0.00    +0.000 C 
BRANCH  12  13
ATOM     13  C   UNL     1       7.459 -17.684   0.000  0.00  0.00    +0.002 C 
BRANCH  13  14
ATOM     14  C   UNL     1       6.344 -18.688   0.000  0.00  0.00    +0.019 C 
BRANCH  14  15
ATOM     15  C   UNL     1       4.918 -18.224   0.000  0.00  0.00    +0.101 C 
BRANCH  15  16
ATOM     16  N   UNL     1       4.606 -16.757   0.000  0.00  0.00    -0.349 N 
ATOM     17  H   UNL     1       5.338 -16.098   0.000  0.00  0.00    +0.146 HD
BRANCH  16  18
ATOM     18  C   UNL     1       3.179 -16.293   0.000  0.00  0.00    +0.078 C 
ATOM     19  C   UNL     1       2.867 -14.826   0.000  0.00  0.00    +0.053 C 
ATOM     20  C   UNL     1       3.871 -13.711   0.000  0.00  0.00    +0.084 C 
ATOM     21  C   UNL     1       3.121 -12.412   0.000  0.00  0.00    +0.237 C 
ATOM     22  O   UNL     1       1.654 -12.724   0.000  0.00  0.00    -0.461 OA
ATOM     23  C   UNL     1       1.497 -14.216   0.000  0.00  0.00    +0.336 C 
ATOM     24  O   UNL     1       0.198 -14.966   0.000  0.00  0.00    -0.245 OA
ENDBRANCH  16  18
ENDBRANCH  15  16
ENDBRANCH  14  15
ENDBRANCH  13  14
ENDBRANCH  12  13
ENDBRANCH  11  12
TORSDOF 11