REMARK  Name = 153399
REMARK  2 active torsions:
REMARK  status: ('A' for Active; 'I' for Inactive)
REMARK    1  A    between atoms: C_6  and  C_17
REMARK    2  A    between atoms: C_10  and  C_17
REMARK                            x       y       z     vdW  Elec       q    Type
REMARK                         _______ _______ _______ _____ _____    ______ ____
ROOT
ATOM      1  O   UNL     1      -2.028   2.605   0.000  0.00  0.00    -0.291 OA
ATOM      2  C   UNL     1      -1.649   1.153   0.000  0.00  0.00    +0.174 C 
ATOM      3  C   UNL     1      -0.252   0.607   0.000  0.00  0.00    +0.135 C 
ATOM     12  C   UNL     1      -0.340  -0.890   0.000  0.00  0.00    +0.055 C 
ATOM     13  C   UNL     1      -1.791  -1.270   0.000  0.00  0.00    -0.036 A 
ATOM     14  C   UNL     1      -2.480  -2.602   0.000  0.00  0.00    +0.004 A 
ATOM     15  C   UNL     1      -3.979  -2.671   0.000  0.00  0.00    +0.000 A 
ATOM     16  C   UNL     1      -4.788  -1.408   0.000  0.00  0.00    +0.001 A 
ATOM     17  C   UNL     1      -4.099  -0.076   0.000  0.00  0.00    +0.011 A 
ATOM     18  C   UNL     1      -2.600  -0.007   0.000  0.00  0.00    +0.021 A 
ENDROOT
BRANCH   3   4
ATOM      4  C   UNL     1       1.011   1.416   0.000  0.00  0.00    +0.175 C 
ATOM      5  O   UNL     1       0.942   2.915   0.000  0.00  0.00    -0.291 OA
BRANCH   4   6
ATOM      6  C   UNL     1       2.343   0.727   0.000  0.00  0.00    +0.036 A 
ATOM      7  C   UNL     1       3.606   1.536   0.000  0.00  0.00    +0.122 A 
ATOM      8  N   UNL     1       4.939   0.847   0.000  0.00  0.00    -0.263 NA
ATOM      9  C   UNL     1       5.008  -0.651   0.000  0.00  0.00    +0.111 A 
ATOM     10  C   UNL     1       3.745  -1.460   0.000  0.00  0.00    +0.020 A 
ATOM     11  C   UNL     1       2.413  -0.771   0.000  0.00  0.00    +0.014 A 
ENDBRANCH   4   6
ENDBRANCH   3   4
TORSDOF 2