REMARK  Name = 205827
REMARK  5 active torsions:
REMARK  status: ('A' for Active; 'I' for Inactive)
REMARK    1  A    between atoms: C_1  and  C_13
REMARK    2  A    between atoms: C_3  and  N_16
REMARK    3  A    between atoms: C_9  and  N_19
REMARK    4  A    between atoms: C_10  and  S_20
REMARK    5  A    between atoms: S_20  and  C_21
REMARK                            x       y       z     vdW  Elec       q    Type
REMARK                         _______ _______ _______ _____ _____    ______ ____
ROOT
ATOM     12  N   UNL     1      -8.819   4.774   0.000  0.00  0.00    -0.268 N 
ATOM     13  H   UNL     1      -9.711   4.358   0.000  0.00  0.00    +0.156 HD
ATOM     14  C   UNL     1      -7.520   4.024   0.000  0.00  0.00    +0.308 C 
ATOM     15  N   UNL     1      -7.520   2.525   0.000  0.00  0.00    -0.269 N 
ATOM     16  H   UNL     1      -8.372   2.032   0.000  0.00  0.00    +0.156 HD
ATOM     25  O   UNL     1      -6.221   4.774   0.000  0.00  0.00    -0.252 OA
ENDROOT
BRANCH  12  11
ATOM      1  C   UNL     1      -9.707   7.216   0.000  0.00  0.00    +0.058 A 
ATOM      7  C   UNL     1      -9.447   8.693   0.000  0.00  0.00    +0.015 A 
ATOM      8  C   UNL     1      -8.037   9.206   0.000  0.00  0.00    +0.001 A 
ATOM      9  C   UNL     1      -6.888   8.242   0.000  0.00  0.00    +0.002 A 
ATOM     10  C   UNL     1      -7.149   6.765   0.000  0.00  0.00    +0.024 A 
ATOM     11  C   UNL     1      -8.558   6.252   0.000  0.00  0.00    +0.047 A 
BRANCH   1   2
ATOM      2  C   UNL     1     -11.117   6.703   0.000  0.00  0.00    +0.243 C 
ATOM      3  N   UNL     1     -11.377   5.226   0.000  0.00  0.00    -0.325 N 
ATOM      4  H   UNL     1     -10.623   4.593   0.000  0.00  0.00    +0.145 HD
ATOM      5  H   UNL     1     -12.303   4.889   0.000  0.00  0.00    +0.145 HD
ATOM      6  O   UNL     1     -12.266   7.667   0.000  0.00  0.00    -0.270 OA
ENDBRANCH   1   2
ENDBRANCH  12  11
BRANCH  15  17
ATOM     17  C   UNL     1      -6.221   1.775   0.000  0.00  0.00    +0.035 A 
ATOM     18  C   UNL     1      -6.221   0.275   0.000  0.00  0.00    +0.024 A 
ATOM     19  C   UNL     1      -4.922  -0.475   0.000  0.00  0.00    +0.016 A 
ATOM     20  C   UNL     1      -3.623   0.275   0.000  0.00  0.00    +0.008 A 
ATOM     23  C   UNL     1      -3.623   1.775   0.000  0.00  0.00    +0.016 A 
ATOM     24  C   UNL     1      -4.922   2.525   0.000  0.00  0.00    +0.024 A 
BRANCH  20  21
ATOM     21  S   UNL     1      -2.324  -0.475   0.000  0.00  0.00    -0.129 S 
ATOM     22  C   UNL     1      -1.025   0.275   0.000  0.00  0.00    +0.090 C 
ENDBRANCH  20  21
ENDBRANCH  15  17
TORSDOF 4