REMARK  Name = 154587
REMARK  6 active torsions:
REMARK  status: ('A' for Active; 'I' for Inactive)
REMARK    1  A    between atoms: C_5  and  C_10
REMARK    2  A    between atoms: C_7  and  C_13
REMARK    3  A    between atoms: C_10  and  C_11
REMARK    4  A    between atoms: C_10  and  C_12
REMARK    5  A    between atoms: C_13  and  C_14
REMARK    6  A    between atoms: C_13  and  C_15
REMARK                            x       y       z     vdW  Elec       q    Type
REMARK                         _______ _______ _______ _____ _____    ______ ____
ROOT
ATOM      1  N   UNL     1      -6.132   1.226   0.000  0.00  0.00    -0.215 NA
ATOM      2  C   UNL     1      -4.833   0.475   0.000  0.00  0.00    +0.255 A 
ATOM      3  N   UNL     1      -3.406   0.939   0.000  0.00  0.00    -0.176 NA
ATOM      4  C   UNL     1      -2.525  -0.275   0.000  0.00  0.00    +0.234 A 
ATOM      5  N   UNL     1      -1.025  -0.275   0.000  0.00  0.00    -0.326 N 
ATOM      6  H   UNL     1      -0.532   0.578   0.000  0.00  0.00    +0.145 HD
ATOM      7  H   UNL     1      -0.532  -1.127   0.000  0.00  0.00    +0.145 HD
ATOM      8  N   UNL     1      -3.406  -1.488   0.000  0.00  0.00    -0.128 NA
ATOM      9  N   UNL     1      -4.833  -1.025   0.000  0.00  0.00    -0.199 N 
ATOM     10  C   UNL     1      -6.132  -1.775   0.000  0.00  0.00    +0.051 A 
ATOM     14  C   UNL     1      -7.431  -1.025   0.000  0.00  0.00    +0.047 A 
ATOM     15  C   UNL     1      -7.431   0.475   0.000  0.00  0.00    +0.049 A 
ENDROOT
BRANCH  10  11
ATOM     11  C   UNL     1      -6.132  -3.275   0.000  0.00  0.00    +0.032 C 
ATOM     12  C   UNL     1      -4.833  -4.024   0.000  0.00  0.00    +0.014 C 
ATOM     13  C   UNL     1      -7.431  -4.024   0.000  0.00  0.00    +0.014 C 
ENDBRANCH  10  11
BRANCH  15  16
ATOM     16  C   UNL     1      -8.730   1.226   0.000  0.00  0.00    +0.032 C 
ATOM     17  C   UNL     1      -8.730   2.725   0.000  0.00  0.00    +0.014 C 
ATOM     18  C   UNL     1     -10.029   0.475   0.000  0.00  0.00    +0.014 C 
ENDBRANCH  15  16
TORSDOF 2