REMARK  Name = 126837
REMARK  11 active torsions:
REMARK  status: ('A' for Active; 'I' for Inactive)
REMARK    1  A    between atoms: O_1  and  C_20
REMARK    2  A    between atoms: O_1  and  C_21
REMARK    3  A    between atoms: O_2  and  C_25
REMARK    4  A    between atoms: O_2  and  C_27
REMARK    5  A    between atoms: C_5  and  C_27
REMARK    6  A    between atoms: C_11  and  S_16
REMARK    7  A    between atoms: C_13  and  C_15
REMARK    8  A    between atoms: S_16  and  C_19
REMARK    9  A    between atoms: C_19  and  C_20
REMARK   10  A    between atoms: C_21  and  C_23
REMARK   11  A    between atoms: C_23  and  N_24
REMARK                            x       y       z     vdW  Elec       q    Type
REMARK                         _______ _______ _______ _____ _____    ______ ____
ROOT
ATOM      2  C   UNL     1      -4.125  -7.346   0.000  0.00  0.00    +0.325 C 
ATOM     16  O   UNL     1      -3.375  -6.047   0.000  0.00  0.00    -0.249 OA
ENDROOT
BRANCH   2   1
ATOM      1  O   UNL     1      -5.625  -7.346   0.000  0.00  0.00    -0.462 OA
BRANCH   1  17
ATOM     17  C   UNL     1      -6.138  -5.936   0.000  0.00  0.00    +0.255 C 
BRANCH  17  18
ATOM     18  C   UNL     1      -7.615  -5.676   0.000  0.00  0.00    +0.213 C 
BRANCH  18  19
ATOM     19  S   UNL     1      -8.579  -6.825   0.000  0.00  0.00    +0.000 S 
ATOM     20  O   UNL     1      -7.430  -7.789   0.000  0.00  0.00    -0.169 OA
ATOM     21  O   UNL     1      -9.729  -5.861   0.000  0.00  0.00    -0.169 OA
BRANCH  19  22
ATOM     22  C   UNL     1      -9.544  -7.974   0.000  0.00  0.00    +0.088 A 
ATOM     23  C   UNL     1     -11.021  -7.713   0.000  0.00  0.00    +0.027 A 
ATOM     24  C   UNL     1     -11.985  -8.862   0.000  0.00  0.00    +0.005 A 
ATOM     25  C   UNL     1     -11.472 -10.272   0.000  0.00  0.00    -0.050 A 
ATOM     26  C   UNL     1     -12.436 -11.421   0.000  0.00  0.00    +0.044 C 
ATOM     27  C   UNL     1      -9.995 -10.532   0.000  0.00  0.00    +0.005 A 
ATOM     28  C   UNL     1      -9.031  -9.383   0.000  0.00  0.00    +0.027 A 
ENDBRANCH  19  22
ENDBRANCH  18  19
ENDBRANCH  17  18
ENDBRANCH   1  17
ENDBRANCH   2   1
BRANCH   2   3
ATOM      3  C   UNL     1      -3.375  -8.645   0.000  0.00  0.00    +0.228 C 
BRANCH   3   4
ATOM      4  N   UNL     1      -1.875  -8.645   0.000  0.00  0.00    -0.271 N 
ATOM      5  H   UNL     1      -1.383  -9.497   0.000  0.00  0.00    +0.153 HD
ATOM      6  C   UNL     1      -1.125  -7.346   0.000  0.00  0.00    +0.401 C 
ATOM      7  O   UNL     1      -1.875  -6.047   0.000  0.00  0.00    -0.226 OA
BRANCH   6   8
ATOM      8  O   UNL     1       0.375  -7.346   0.000  0.00  0.00    -0.446 OA
BRANCH   8   9
ATOM      9  C   UNL     1       1.125  -6.047   0.000  0.00  0.00    +0.269 C 
BRANCH   9  10
ATOM     10  C   UNL     1       0.375  -4.748   0.000  0.00  0.00    -0.010 A 
ATOM     11  C   UNL     1       1.125  -3.449   0.000  0.00  0.00    +0.007 A 
ATOM     12  C   UNL     1       0.375  -2.150   0.000  0.00  0.00    +0.000 A 
ATOM     13  C   UNL     1      -1.125  -2.150   0.000  0.00  0.00    +0.000 A 
ATOM     14  C   UNL     1      -1.875  -3.449   0.000  0.00  0.00    +0.000 A 
ATOM     15  C   UNL     1      -1.125  -4.748   0.000  0.00  0.00    +0.007 A 
ENDBRANCH   9  10
ENDBRANCH   8   9
ENDBRANCH   6   8
ENDBRANCH   3   4
ENDBRANCH   2   3
TORSDOF 10