REMARK  Name = 101789
REMARK  4 active torsions:
REMARK  status: ('A' for Active; 'I' for Inactive)
REMARK    1  A    between atoms: N_1  and  C_7
REMARK    2  A    between atoms: C_5  and  O_24
REMARK    3  A    between atoms: C_9  and  C_13
REMARK    4  A    between atoms: C_17  and  C_20
REMARK                            x       y       z     vdW  Elec       q    Type
REMARK                         _______ _______ _______ _____ _____    ______ ____
ROOT
ATOM      1  N   UNL     1      -0.276  -8.153   0.000  0.00  0.00    -0.305 N 
ATOM      2  C   UNL     1      -0.433  -9.644   0.000  0.00  0.00    +0.054 A 
ATOM      9  C   UNL     1       0.937 -10.255   0.000  0.00  0.00    +0.029 A 
ATOM     10  C   UNL     1       1.941  -9.140   0.000  0.00  0.00    +0.029 A 
ATOM     11  C   UNL     1       1.191  -7.841   0.000  0.00  0.00    +0.054 A 
ENDROOT
BRANCH   2   3
ATOM      3  C   UNL     1      -1.732 -10.394   0.000  0.00  0.00    -0.001 A 
ATOM      4  C   UNL     1      -1.732 -11.894   0.000  0.00  0.00    +0.010 A 
ATOM      5  C   UNL     1      -3.031 -12.644   0.000  0.00  0.00    +0.001 A 
ATOM      6  C   UNL     1      -4.330 -11.894   0.000  0.00  0.00    +0.000 A 
ATOM      7  C   UNL     1      -4.330 -10.394   0.000  0.00  0.00    +0.001 A 
ATOM      8  C   UNL     1      -3.031  -9.644   0.000  0.00  0.00    +0.010 A 
ENDBRANCH   2   3
BRANCH  11  12
ATOM     12  C   UNL     1       2.030  -6.597   0.000  0.00  0.00    -0.001 A 
ATOM     13  C   UNL     1       3.526  -6.702   0.000  0.00  0.00    +0.010 A 
ATOM     14  C   UNL     1       4.365  -5.458   0.000  0.00  0.00    +0.001 A 
ATOM     15  C   UNL     1       3.708  -4.110   0.000  0.00  0.00    +0.000 A 
ATOM     16  C   UNL     1       2.211  -4.005   0.000  0.00  0.00    +0.001 A 
ATOM     17  C   UNL     1       1.372  -5.249   0.000  0.00  0.00    +0.010 A 
ENDBRANCH  11  12
BRANCH   1  18
ATOM     18  C   UNL     1      -1.548  -7.358   0.000  0.00  0.00    +0.089 A 
ATOM     19  C   UNL     1      -2.873  -8.062   0.000  0.00  0.00    +0.030 A 
ATOM     20  C   UNL     1      -4.145  -7.267   0.000  0.00  0.00    +0.002 A 
ATOM     21  C   UNL     1      -4.092  -5.768   0.000  0.00  0.00    +0.004 A 
ATOM     22  C   UNL     1      -2.768  -5.064   0.000  0.00  0.00    +0.047 A 
ATOM     23  C   UNL     1      -1.496  -5.859   0.000  0.00  0.00    +0.141 A 
BRANCH  23  24
ATOM     24  O   UNL     1      -0.171  -5.154   0.000  0.00  0.00    -0.505 OA
ATOM     25  H   UNL     1       0.623  -5.651   0.000  0.00  0.00    +0.292 HD
ENDBRANCH  23  24
ENDBRANCH   1  18
TORSDOF 4