REMARK  Name = 149286
REMARK  4 active torsions:
REMARK  status: ('A' for Active; 'I' for Inactive)
REMARK    1  A    between atoms: C_1  and  C_13
REMARK    2  A    between atoms: C_2  and  C_3
REMARK    3  A    between atoms: C_3  and  C_4
REMARK    4  A    between atoms: C_5  and  C_7
REMARK                            x       y       z     vdW  Elec       q    Type
REMARK                         _______ _______ _______ _____ _____    ______ ____
ROOT
ATOM      9  C   UNL     1      -7.245  -3.750   0.000  0.00  0.00    +0.179 C 
ATOM     10  O   UNL     1      -7.245  -5.250   0.000  0.00  0.00    -0.288 OA
ENDROOT
BRANCH   9   8
ATOM      1  C   UNL     1      -9.843  -3.750   0.000  0.00  0.00    +0.013 C 
ATOM      8  C   UNL     1      -8.544  -3.000   0.000  0.00  0.00    +0.051 C 
BRANCH   1   2
ATOM      2  C   UNL     1     -11.142  -3.000   0.000  0.00  0.00    -0.007 A 
ATOM      3  C   UNL     1     -12.441  -3.750   0.000  0.00  0.00    +0.011 A 
ATOM      4  C   UNL     1     -13.740  -3.000   0.000  0.00  0.00    +0.020 A 
ATOM      5  C   UNL     1     -13.740  -1.500   0.000  0.00  0.00    +0.111 A 
ATOM      6  N   UNL     1     -12.441  -0.750   0.000  0.00  0.00    -0.263 NA
ATOM      7  C   UNL     1     -11.142  -1.500   0.000  0.00  0.00    +0.118 A 
ENDBRANCH   1   2
ENDBRANCH   9   8
BRANCH   9  11
ATOM     11  C   UNL     1      -5.946  -3.000   0.000  0.00  0.00    +0.051 C 
ATOM     12  C   UNL     1      -4.647  -3.750   0.000  0.00  0.00    +0.013 C 
BRANCH  12  13
ATOM     13  C   UNL     1      -3.348  -3.000   0.000  0.00  0.00    -0.007 A 
ATOM     14  C   UNL     1      -3.348  -1.500   0.000  0.00  0.00    +0.118 A 
ATOM     15  N   UNL     1      -2.049  -0.750   0.000  0.00  0.00    -0.263 NA
ATOM     16  C   UNL     1      -0.750  -1.500   0.000  0.00  0.00    +0.111 A 
ATOM     17  C   UNL     1      -0.750  -3.000   0.000  0.00  0.00    +0.020 A 
ATOM     18  C   UNL     1      -2.049  -3.750   0.000  0.00  0.00    +0.011 A 
ENDBRANCH  12  13
ENDBRANCH   9  11
TORSDOF 4