REMARK  Name = 117197
REMARK  2 active torsions:
REMARK  status: ('A' for Active; 'I' for Inactive)
REMARK    1  A    between atoms: N_2  and  C_24
REMARK    2  A    between atoms: N_4  and  C_25
REMARK                            x       y       z     vdW  Elec       q    Type
REMARK                         _______ _______ _______ _____ _____    ______ ____
ROOT
ATOM      1  O   UNL     1       1.692   1.355   0.000  0.00  0.00    -0.246 OA
ATOM      2  C   UNL     1       2.991   2.105   0.000  0.00  0.00    +0.333 A 
ATOM      3  N   UNL     1       4.290   1.355   0.000  0.00  0.00    -0.283 N 
ATOM      4  C   UNL     1       4.290  -0.145   0.000  0.00  0.00    +0.155 C 
ATOM      5  C   UNL     1       5.590   2.105   0.000  0.00  0.00    +0.131 A 
ATOM      6  C   UNL     1       5.590   3.605   0.000  0.00  0.00    +0.133 A 
ATOM      7  C   UNL     1       4.290   4.355   0.000  0.00  0.00    +0.279 A 
ATOM      8  O   UNL     1       4.290   5.855   0.000  0.00  0.00    -0.265 OA
ATOM      9  N   UNL     1       7.016   4.068   0.000  0.00  0.00    -0.305 N 
ATOM     10  C   UNL     1       7.898   2.855   0.000  0.00  0.00    +0.205 C 
ATOM     11  C   UNL     1       8.780   1.641   0.000  0.00  0.00    +0.024 A 
ATOM     12  C   UNL     1       8.468   0.174   0.000  0.00  0.00    +0.010 A 
ATOM     13  C   UNL     1       9.582  -0.830   0.000  0.00  0.00    +0.001 A 
ATOM     14  C   UNL     1      11.009  -0.366   0.000  0.00  0.00    +0.002 A 
ATOM     15  C   UNL     1      11.321   1.101   0.000  0.00  0.00    +0.024 A 
ATOM     16  C   UNL     1      10.206   2.105   0.000  0.00  0.00    +0.041 A 
ATOM     17  N   UNL     1      10.206   3.605   0.000  0.00  0.00    -0.282 N 
ATOM     18  H   UNL     1      11.420   4.487   0.000  0.00  0.00    +0.155 HD
ATOM     19  C   UNL     1       8.779   4.068   0.000  0.00  0.00    +0.264 C 
ATOM     20  O   UNL     1       8.316   5.495   0.000  0.00  0.00    -0.271 OA
ATOM     21  H   UNL     1       7.480   5.495   0.000  0.00  0.00    +0.149 HD
ATOM     22  N   UNL     1       7.016   1.641   0.000  0.00  0.00    -0.297 N 
ATOM     23  H   UNL     1       7.480   0.215   0.000  0.00  0.00    +0.150 HD
ATOM     24  N   UNL     1       2.991   3.605   0.000  0.00  0.00    -0.262 N 
ATOM     25  C   UNL     1       1.692   4.355   0.000  0.00  0.00    +0.157 C 
ENDROOT
TORSDOF 0