REMARK  Name = 134058
REMARK  4 active torsions:
REMARK  status: ('A' for Active; 'I' for Inactive)
REMARK    1  A    between atoms: S_6  and  C_8
REMARK    2  A    between atoms: S_6  and  C_10
REMARK    3  A    between atoms: C_7  and  S_16
REMARK    4  A    between atoms: S_16  and  C_17
REMARK                            x       y       z     vdW  Elec       q    Type
REMARK                         _______ _______ _______ _____ _____    ______ ____
ROOT
ATOM      1  O   UNL     1      -2.973  -9.649   0.000  0.00  0.00    -0.243 OA
ATOM      2  C   UNL     1      -1.674  -8.899   0.000  0.00  0.00    +0.363 A 
ATOM      3  N   UNL     1      -0.375  -9.649   0.000  0.00  0.00    -0.226 N 
ATOM      4  H   UNL     1      -0.375 -11.150   0.000  0.00  0.00    +0.194 HD
ATOM      5  N   UNL     1       0.924  -8.899   0.000  0.00  0.00    -0.160 NA
ATOM      6  C   UNL     1       0.924  -7.399   0.000  0.00  0.00    +0.154 A 
ATOM      7  C   UNL     1      -0.375  -6.649   0.000  0.00  0.00    +0.136 A 
ATOM     17  N   UNL     1      -1.674  -7.399   0.000  0.00  0.00    -0.183 NA
ENDROOT
BRANCH   7   8
ATOM      8  S   UNL     1      -0.375  -5.149   0.000  0.00  0.00    -0.106 S 
ATOM      9  C   UNL     1      -1.674  -4.399   0.000  0.00  0.00    +0.091 C 
ENDBRANCH   7   8
BRANCH   6  10
ATOM     10  S   UNL     1       2.223  -6.649   0.000  0.00  0.00    -0.066 S 
BRANCH  10  11
ATOM     11  C   UNL     1       2.223  -5.149   0.000  0.00  0.00    +0.014 A 
ATOM     12  C   UNL     1       3.522  -4.399   0.000  0.00  0.00    +0.015 A 
ATOM     13  C   UNL     1       3.522  -2.900   0.000  0.00  0.00    +0.001 A 
ATOM     14  C   UNL     1       2.223  -2.150   0.000  0.00  0.00    +0.000 A 
ATOM     15  C   UNL     1       0.924  -2.900   0.000  0.00  0.00    +0.001 A 
ATOM     16  C   UNL     1       0.924  -4.399   0.000  0.00  0.00    +0.015 A 
ENDBRANCH  10  11
ENDBRANCH   6  10
TORSDOF 3