REMARK  Name = 136065
REMARK  2 active torsions:
REMARK  status: ('A' for Active; 'I' for Inactive)
REMARK    1  A    between atoms: N_1  and  C_8
REMARK    2  A    between atoms: N_2  and  N_3
REMARK                            x       y       z     vdW  Elec       q    Type
REMARK                         _______ _______ _______ _____ _____    ______ ____
ROOT
ATOM      1  N   UNL     1      -0.750   3.750   0.000  0.00  0.00    -0.134 NA
ATOM      2  N   UNL     1      -0.750   5.250   0.000  0.00  0.00    -0.078 NA
ENDROOT
BRANCH   2   3
ATOM      3  N   UNL     1      -2.049   6.000   0.000  0.00  0.00    -0.233 N 
ATOM      4  C   UNL     1      -2.049   7.500   0.000  0.00  0.00    +0.155 C 
ATOM      5  C   UNL     1      -3.348   8.250   0.000  0.00  0.00    +0.180 C 
ATOM      6  O   UNL     1      -4.647   7.500   0.000  0.00  0.00    -0.377 OA
ATOM      7  C   UNL     1      -4.647   6.000   0.000  0.00  0.00    +0.180 C 
ATOM      8  C   UNL     1      -3.348   5.250   0.000  0.00  0.00    +0.155 C 
ENDBRANCH   2   3
BRANCH   1   9
ATOM      9  C   UNL     1       0.549   3.000   0.000  0.00  0.00    +0.088 A 
ATOM     10  C   UNL     1       1.848   3.750   0.000  0.00  0.00    +0.029 A 
ATOM     11  C   UNL     1       3.147   3.000   0.000  0.00  0.00    +0.002 A 
ATOM     12  C   UNL     1       3.147   1.500   0.000  0.00  0.00    +0.000 A 
ATOM     13  C   UNL     1       1.848   0.750   0.000  0.00  0.00    +0.002 A 
ATOM     14  C   UNL     1       0.549   1.500   0.000  0.00  0.00    +0.029 A 
ENDBRANCH   1   9
TORSDOF 2