REMARK  Name = 19136
REMARK  4 active torsions:
REMARK  status: ('A' for Active; 'I' for Inactive)
REMARK    1  A    between atoms: C_3  and  N_12
REMARK    2  A    between atoms: C_10  and  C_11
REMARK    3  A    between atoms: C_10  and  N_12
REMARK    4  A    between atoms: C_11  and  C_13
REMARK                            x       y       z     vdW  Elec       q    Type
REMARK                         _______ _______ _______ _____ _____    ______ ____
ROOT
ATOM      1  C   UNL     1     -10.675   2.510   0.000  0.00  0.00    +0.226 A 
ATOM      2 CL   UNL     1     -11.974   3.260   0.000  0.00  0.00    -0.041 Cl
ATOM      3  N   UNL     1      -9.376   3.260   0.000  0.00  0.00    -0.198 NA
ATOM      4  C   UNL     1      -8.077   2.510   0.000  0.00  0.00    +0.162 A 
ATOM      5  N   UNL     1      -6.651   2.974   0.000  0.00  0.00    -0.260 N 
ATOM      6  H   UNL     1      -6.346   3.910   0.000  0.00  0.00    +0.191 HD
ATOM      7  N   UNL     1      -5.769   1.760   0.000  0.00  0.00    -0.180 NA
ATOM      8  C   UNL     1      -6.651   0.547   0.000  0.00  0.00    +0.147 A 
ATOM      9  C   UNL     1      -8.077   1.010   0.000  0.00  0.00    +0.078 A 
ATOM     10  C   UNL     1      -9.376   0.260   0.000  0.00  0.00    +0.134 A 
ATOM     21  N   UNL     1     -10.675   1.010   0.000  0.00  0.00    -0.202 NA
ENDROOT
BRANCH  10  11
ATOM     11  N   UNL     1      -9.376  -1.240   0.000  0.00  0.00    -0.328 N 
ATOM     12  H   UNL     1     -10.229  -1.732   0.000  0.00  0.00    +0.147 HD
BRANCH  11  13
ATOM     13  C   UNL     1      -8.077  -1.990   0.000  0.00  0.00    +0.107 C 
BRANCH  13  14
ATOM     14  C   UNL     1      -6.778  -1.240   0.000  0.00  0.00    +0.054 C 
BRANCH  14  15
ATOM     15  C   UNL     1      -5.479  -1.990   0.000  0.00  0.00    -0.046 A 
ATOM     16  C   UNL     1      -4.180  -1.240   0.000  0.00  0.00    +0.004 A 
ATOM     17  C   UNL     1      -2.881  -1.990   0.000  0.00  0.00    +0.000 A 
ATOM     18  C   UNL     1      -2.881  -3.490   0.000  0.00  0.00    +0.000 A 
ATOM     19  C   UNL     1      -4.180  -4.240   0.000  0.00  0.00    +0.000 A 
ATOM     20  C   UNL     1      -5.479  -3.490   0.000  0.00  0.00    +0.004 A 
ENDBRANCH  14  15
ENDBRANCH  13  14
ENDBRANCH  11  13
ENDBRANCH  10  11
TORSDOF 4