REMARK  Name = 19637
REMARK  3 active torsions:
REMARK  status: ('A' for Active; 'I' for Inactive)
REMARK    1  A    between atoms: C_3  and  C_16
REMARK    2  A    between atoms: C_7  and  N_13
REMARK    3  A    between atoms: C_12  and  C_17
REMARK                            x       y       z     vdW  Elec       q    Type
REMARK                         _______ _______ _______ _____ _____    ______ ____
ROOT
ATOM      9  C   UNL     1       0.549   5.250   0.000  0.00  0.00    -0.019 A 
ATOM     10  C   UNL     1       1.848   6.000   0.000  0.00  0.00    +0.092 A 
ATOM     11  C   UNL     1       3.147   5.250   0.000  0.00  0.00    +0.274 A 
ATOM     15  C   UNL     1       3.147   3.750   0.000  0.00  0.00    +0.084 A 
ATOM     16  C   UNL     1       1.848   3.000   0.000  0.00  0.00    +0.007 A 
ATOM     17  C   UNL     1       0.549   3.750   0.000  0.00  0.00    +0.008 A 
ENDROOT
BRANCH  11  12
ATOM     12  N   UNL     1       4.446   6.000   0.000  0.00  0.00    +0.080 N 
ATOM     13  O   UNL     1       4.446   7.500   0.000  0.00  0.00    +0.041 OA
ATOM     14  O   UNL     1       5.745   5.250   0.000  0.00  0.00    -0.576 OA
ENDBRANCH  11  12
BRANCH   9   8
ATOM      7  C   UNL     1      -0.750   7.500   0.000  0.00  0.00    +0.028 C 
ATOM      8  C   UNL     1      -0.750   6.000   0.000  0.00  0.00    +0.010 C 
BRANCH   7   6
ATOM      1  N   UNL     1      -3.348   7.500   0.000  0.00  0.00    -0.256 NA
ATOM      2  C   UNL     1      -4.647   8.250   0.000  0.00  0.00    +0.111 A 
ATOM      3  C   UNL     1      -4.647   9.750   0.000  0.00  0.00    +0.020 A 
ATOM      4  C   UNL     1      -3.348  10.500   0.000  0.00  0.00    +0.004 A 
ATOM      5  C   UNL     1      -2.049   9.750   0.000  0.00  0.00    +0.028 A 
ATOM      6  C   UNL     1      -2.049   8.250   0.000  0.00  0.00    +0.064 A 
ENDBRANCH   7   6
ENDBRANCH   9   8
TORSDOF 3