REMARK  Name = 157940
REMARK  7 active torsions:
REMARK  status: ('A' for Active; 'I' for Inactive)
REMARK    1  A    between atoms: O_2  and  C_12
REMARK    2  A    between atoms: O_2  and  C_15
REMARK    3  A    between atoms: C_3  and  C_17
REMARK    4  A    between atoms: C_3  and  C_18
REMARK    5  A    between atoms: C_9  and  C_16
REMARK    6  A    between atoms: O_13  and  C_14
REMARK    7  A    between atoms: C_14  and  C_15
REMARK                            x       y       z     vdW  Elec       q    Type
REMARK                         _______ _______ _______ _____ _____    ______ ____
ROOT
ATOM      1  O   UNL     1      -0.375   6.649   0.000  0.00  0.00    -0.288 OA
ATOM      2  C   UNL     1       0.924   5.899   0.000  0.00  0.00    +0.182 C 
ATOM      3  C   UNL     1       0.924   4.399   0.000  0.00  0.00    +0.092 C 
ATOM      4  C   UNL     1       2.223   3.650   0.000  0.00  0.00    +0.111 C 
ATOM      5  C   UNL     1       3.522   4.399   0.000  0.00  0.00    +0.047 C 
ATOM      6  C   UNL     1       3.522   2.900   0.000  0.00  0.00    +0.024 C 
ATOM      7  C   UNL     1       4.821   3.650   0.000  0.00  0.00    +0.019 C 
ATOM      8  C   UNL     1       6.120   4.399   0.000  0.00  0.00    +0.002 C 
ATOM      9  C   UNL     1       6.120   5.899   0.000  0.00  0.00    +0.011 C 
ATOM     10  C   UNL     1       4.821   6.649   0.000  0.00  0.00    -0.013 C 
ATOM     11  C   UNL     1       5.785   7.799   0.000  0.00  0.00    +0.015 C 
ATOM     12  C   UNL     1       3.857   7.799   0.000  0.00  0.00    +0.015 C 
ATOM     13  C   UNL     1       3.522   5.899   0.000  0.00  0.00    -0.047 C 
ATOM     19  C   UNL     1       2.223   6.649   0.000  0.00  0.00    +0.051 C 
ENDROOT
BRANCH   4  14
ATOM     14  O   UNL     1       2.223   2.150   0.000  0.00  0.00    -0.493 OA
BRANCH  14  15
ATOM     15  C   UNL     1       0.924   1.400   0.000  0.00  0.00    +0.256 C 
BRANCH  15  16
ATOM     16  C   UNL     1      -0.375   2.150   0.000  0.00  0.00    +0.196 C 
BRANCH  16  17
ATOM     17  O   UNL     1      -0.375   3.650   0.000  0.00  0.00    -0.392 OA
ATOM     18  H   UNL     1       0.465   4.135   0.000  0.00  0.00    +0.210 HD
ENDBRANCH  16  17
ENDBRANCH  15  16
ENDBRANCH  14  15
ENDBRANCH   4  14
TORSDOF 4