REMARK  Name = 165704
REMARK  3 active torsions:
REMARK  status: ('A' for Active; 'I' for Inactive)
REMARK    1  A    between atoms: C_7  and  C_21
REMARK    2  A    between atoms: C_11  and  C_24
REMARK    3  A    between atoms: C_12  and  N_23
REMARK                            x       y       z     vdW  Elec       q    Type
REMARK                         _______ _______ _______ _____ _____    ______ ____
ROOT
ATOM      6  C   UNL     1      -2.873   5.524   0.000  0.00  0.00    +0.056 A 
ATOM      7  C   UNL     1      -1.574   4.774   0.000  0.00  0.00    +0.061 A 
ATOM      8  C   UNL     1      -1.574   3.275   0.000  0.00  0.00    -0.024 A 
ATOM      9  C   UNL     1      -2.873   2.525   0.000  0.00  0.00    +0.005 A 
ATOM     10  C   UNL     1      -4.172   3.275   0.000  0.00  0.00    +0.002 A 
ATOM     11  C   UNL     1      -0.275   2.525   0.000  0.00  0.00    +0.038 C 
ATOM     12  C   UNL     1       1.025   3.275   0.000  0.00  0.00    +0.024 C 
ATOM     13  C   UNL     1       1.025   4.774   0.000  0.00  0.00    +0.114 C 
ATOM     14  N   UNL     1      -0.275   5.524   0.000  0.00  0.00    -0.263 N 
ATOM     15  C   UNL     1      -0.275   7.024   0.000  0.00  0.00    +0.286 C 
ATOM     16  O   UNL     1      -1.574   7.774   0.000  0.00  0.00    -0.266 OA
ATOM     22  C   UNL     1      -4.172   4.774   0.000  0.00  0.00    +0.025 A 
ENDROOT
BRANCH  15  17
ATOM     17  C   UNL     1       1.025   7.774   0.000  0.00  0.00    +0.190 A 
ATOM     18  C   UNL     1       1.181   9.266   0.000  0.00  0.00    +0.054 A 
ATOM     19  C   UNL     1       2.648   9.578   0.000  0.00  0.00    +0.042 A 
ATOM     20  C   UNL     1       3.398   8.279   0.000  0.00  0.00    +0.196 A 
ATOM     21  O   UNL     1       2.395   7.164   0.000  0.00  0.00    -0.458 OA
ENDBRANCH  15  17
BRANCH   6   4
ATOM      3  C   UNL     1      -4.172   7.774   0.000  0.00  0.00    +0.284 C 
ATOM      4  N   UNL     1      -2.873   7.024   0.000  0.00  0.00    -0.277 N 
ATOM      5  H   UNL     1      -2.020   7.517   0.000  0.00  0.00    +0.155 HD
ATOM     23  O   UNL     1      -4.172   9.274   0.000  0.00  0.00    -0.266 OA
BRANCH   3   2
ATOM      1  O   UNL     1      -5.628   5.533   0.000  0.00  0.00    -0.458 OA
ATOM      2  C   UNL     1      -5.471   7.024   0.000  0.00  0.00    +0.189 A 
ATOM     24  C   UNL     1      -6.841   7.635   0.000  0.00  0.00    +0.054 A 
ATOM     25  C   UNL     1      -7.845   6.520   0.000  0.00  0.00    +0.042 A 
ATOM     26  C   UNL     1      -7.095   5.221   0.000  0.00  0.00    +0.196 A 
ENDBRANCH   3   2
ENDBRANCH   6   4
TORSDOF 3