REMARK  Name = 166637
REMARK  5 active torsions:
REMARK  status: ('A' for Active; 'I' for Inactive)
REMARK    1  A    between atoms: N_5  and  C_20
REMARK    2  A    between atoms: N_7  and  C_18
REMARK    3  A    between atoms: C_15  and  C_21
REMARK    4  A    between atoms: C_18  and  C_19
REMARK    5  A    between atoms: C_19  and  C_20
REMARK                            x       y       z     vdW  Elec       q    Type
REMARK                         _______ _______ _______ _____ _____    ______ ____
ROOT
ATOM      1 CL   UNL     1      -6.760  -7.633   0.000  0.00  0.00    -0.059 Cl
ATOM      2  C   UNL     1      -5.268  -7.476   0.000  0.00  0.00    +0.168 A 
ATOM      3  C   UNL     1      -4.386  -8.690   0.000  0.00  0.00    +0.168 A 
ATOM      4  N   UNL     1      -2.894  -8.533   0.000  0.00  0.00    -0.210 NA
ATOM      5  C   UNL     1      -2.284  -7.163   0.000  0.00  0.00    +0.199 A 
ATOM      6  C   UNL     1      -3.166  -5.949   0.000  0.00  0.00    +0.181 A 
ATOM      7  N   UNL     1      -2.284  -4.736   0.000  0.00  0.00    -0.304 N 
ATOM     17  C   UNL     1      -0.858  -5.199   0.000  0.00  0.00    +0.218 A 
ATOM     22  N   UNL     1      -0.858  -6.699   0.000  0.00  0.00    -0.203 NA
ATOM     23 CL   UNL     1      -4.996 -10.060   0.000  0.00  0.00    -0.059 Cl
ATOM     24  N   UNL     1      -4.658  -6.106   0.000  0.00  0.00    -0.211 NA
ENDROOT
BRANCH  17  18
ATOM     18  C   UNL     1       0.356  -4.317   0.000  0.00  0.00    +0.451 C 
ATOM     19  F   UNL     1       1.569  -3.436   0.000  0.00  0.00    -0.163 F 
ATOM     20  F   UNL     1       1.237  -5.531   0.000  0.00  0.00    -0.163 F 
ATOM     21  F   UNL     1      -0.526  -3.104   0.000  0.00  0.00    -0.163 F 
ENDBRANCH  17  18
BRANCH   7   8
ATOM      8  C   UNL     1      -2.748  -3.309   0.000  0.00  0.00    +0.126 C 
BRANCH   8   9
ATOM      9  C   UNL     1      -1.566  -2.386   0.000  0.00  0.00    +0.037 C 
BRANCH   9  10
ATOM     10  C   UNL     1      -2.030  -0.959   0.000  0.00  0.00    +0.086 C 
BRANCH  10  11
ATOM     11  N   UNL     1      -1.026   0.156   0.000  0.00  0.00    -0.298 NA
ATOM     12  C   UNL     1      -1.489   1.582   0.000  0.00  0.00    +0.112 C 
ATOM     13  C   UNL     1      -0.486   2.697   0.000  0.00  0.00    +0.175 C 
ATOM     14  O   UNL     1       0.982   2.385   0.000  0.00  0.00    -0.377 OA
ATOM     15  C   UNL     1       1.445   0.959   0.000  0.00  0.00    +0.175 C 
ATOM     16  C   UNL     1       0.441  -0.156   0.000  0.00  0.00    +0.112 C 
ENDBRANCH  10  11
ENDBRANCH   9  10
ENDBRANCH   8   9
ENDBRANCH   7   8
TORSDOF 5