REMARK  Name = 14767
REMARK  5 active torsions:
REMARK  status: ('A' for Active; 'I' for Inactive)
REMARK    1  A    between atoms: C_4  and  C_11
REMARK    2  A    between atoms: C_6  and  S_7
REMARK    3  A    between atoms: S_7  and  C_8
REMARK    4  A    between atoms: C_8  and  C_9
REMARK    5  A    between atoms: C_11  and  O_12
REMARK                            x       y       z     vdW  Elec       q    Type
REMARK                         _______ _______ _______ _____ _____    ______ ____
ROOT
ATOM      1  N   UNL     1       2.873   5.524   0.000  0.00  0.00    -0.207 NA
ATOM      2  C   UNL     1       2.873   4.024   0.000  0.00  0.00    +0.190 A 
ATOM      6  N   UNL     1       4.172   3.275   0.000  0.00  0.00    -0.230 NA
ATOM      7  C   UNL     1       5.471   4.024   0.000  0.00  0.00    +0.123 A 
ATOM      8  C   UNL     1       5.471   5.524   0.000  0.00  0.00    +0.035 A 
ATOM     12  C   UNL     1       4.172   6.274   0.000  0.00  0.00    +0.126 A 
ATOM     13  N   UNL     1       4.172   7.774   0.000  0.00  0.00    -0.343 N 
ATOM     14  H   UNL     1       3.319   8.267   0.000  0.00  0.00    +0.144 HD
ATOM     15  H   UNL     1       5.024   8.267   0.000  0.00  0.00    +0.144 HD
ENDROOT
BRANCH   2   3
ATOM      3  S   UNL     1       1.574   3.275   0.000  0.00  0.00    -0.086 S 
BRANCH   3   4
ATOM      4  C   UNL     1       0.275   4.024   0.000  0.00  0.00    +0.074 C 
ATOM      5  C   UNL     1      -1.025   3.275   0.000  0.00  0.00    +0.016 C 
ENDBRANCH   3   4
ENDBRANCH   2   3
BRANCH   8   9
ATOM      9  C   UNL     1       6.770   6.274   0.000  0.00  0.00    +0.196 C 
BRANCH   9  10
ATOM     10  O   UNL     1       8.069   5.524   0.000  0.00  0.00    -0.390 OA
ATOM     11  H   UNL     1       8.069   4.555   0.000  0.00  0.00    +0.210 HD
ENDBRANCH   9  10
ENDBRANCH   8   9
TORSDOF 4