REMARK  Name = 204262
REMARK  8 active torsions:
REMARK  status: ('A' for Active; 'I' for Inactive)
REMARK    1  A    between atoms: C_8  and  N_20
REMARK    2  A    between atoms: C_9  and  O_11
REMARK    3  A    between atoms: O_11  and  C_12
REMARK    4  A    between atoms: C_17  and  N_21
REMARK    5  A    between atoms: C_19  and  N_21
REMARK    6  A    between atoms: C_19  and  N_22
REMARK    7  A    between atoms: N_22  and  C_23
REMARK    8  A    between atoms: C_23  and  C_24
REMARK                            x       y       z     vdW  Elec       q    Type
REMARK                         _______ _______ _______ _____ _____    ______ ____
ROOT
ATOM     11  C   UNL     1      -7.500  -5.946   0.000  0.00  0.00    +0.133 A 
ATOM     12  C   UNL     1      -6.750  -7.245   0.000  0.00  0.00    +0.048 A 
ATOM     13  C   UNL     1      -5.250  -7.245   0.000  0.00  0.00    +0.027 A 
ATOM     14  C   UNL     1      -4.500  -5.946   0.000  0.00  0.00    +0.033 A 
ATOM     24  C   UNL     1      -5.250  -4.647   0.000  0.00  0.00    +0.027 A 
ATOM     25  C   UNL     1      -6.750  -4.647   0.000  0.00  0.00    +0.048 A 
ENDROOT
BRANCH  14  15
ATOM     15  N   UNL     1      -3.000  -5.946   0.000  0.00  0.00    -0.297 N 
ATOM     16  H   UNL     1      -2.435  -6.753   0.000  0.00  0.00    +0.154 HD
BRANCH  15  17
ATOM     17  C   UNL     1      -2.487  -4.537   0.000  0.00  0.00    +0.135 C 
ATOM     23  S   UNL     1      -3.451  -3.388   0.000  0.00  0.00    -0.019 S 
BRANCH  17  18
ATOM     18  N   UNL     1      -1.010  -4.276   0.000  0.00  0.00    -0.323 N 
ATOM     19  H   UNL     1      -0.673  -3.351   0.000  0.00  0.00    +0.148 HD
BRANCH  18  20
ATOM     20  C   UNL     1      -0.046  -5.425   0.000  0.00  0.00    +0.130 C 
BRANCH  20  21
ATOM     21  C   UNL     1      -0.559  -6.835   0.000  0.00  0.00    -0.016 C 
ATOM     22  C   UNL     1      -2.036  -7.095   0.000  0.00  0.00    +0.005 C 
ENDBRANCH  20  21
ENDBRANCH  18  20
ENDBRANCH  17  18
ENDBRANCH  15  17
ENDBRANCH  14  15
BRANCH  11  10
ATOM     10  O   UNL     1      -9.000  -5.946   0.000  0.00  0.00    -0.411 OA
BRANCH  10   8
ATOM      6  N   UNL     1     -10.990  -4.276   0.000  0.00  0.00    -0.251 N 
ATOM      7  H   UNL     1     -11.327  -3.351   0.000  0.00  0.00    +0.158 HD
ATOM      8  C   UNL     1      -9.513  -4.537   0.000  0.00  0.00    +0.410 C 
ATOM      9  O   UNL     1      -8.549  -3.388   0.000  0.00  0.00    -0.226 OA
BRANCH   6   5
ATOM      1 CL   UNL     1     -14.847  -8.872   0.000  0.00  0.00    -0.082 Cl
ATOM      2  C   UNL     1     -13.883  -7.723   0.000  0.00  0.00    +0.059 A 
ATOM      3  C   UNL     1     -14.396  -6.314   0.000  0.00  0.00    +0.061 A 
ATOM      4  C   UNL     1     -13.432  -5.165   0.000  0.00  0.00    +0.044 A 
ATOM      5  C   UNL     1     -11.954  -5.425   0.000  0.00  0.00    +0.038 A 
ATOM     26  C   UNL     1     -11.441  -6.835   0.000  0.00  0.00    +0.025 A 
ATOM     27 CL   UNL     1     -15.873  -6.053   0.000  0.00  0.00    -0.082 Cl
ATOM     28  C   UNL     1     -12.406  -7.984   0.000  0.00  0.00    +0.023 A 
ENDBRANCH   6   5
ENDBRANCH  10   8
ENDBRANCH  11  10
TORSDOF 8