REMARK  Name = 106464
REMARK  7 active torsions:
REMARK  status: ('A' for Active; 'I' for Inactive)
REMARK    1  A    between atoms: N_2  and  C_15
REMARK    2  A    between atoms: N_3  and  C1*_12
REMARK    3  A    between atoms: C_7  and  C_14
REMARK    4  A    between atoms: C4*_9  and  C5*_23
REMARK    5  A    between atoms: C3*_10  and  O3*_22
REMARK    6  A    between atoms: C_15  and  C_16
REMARK    7  A    between atoms: C5*_23  and  O5*_24
REMARK                            x       y       z     vdW  Elec       q    Type
REMARK                         _______ _______ _______ _____ _____    ______ ____
ROOT
ATOM      1  O   UNL     1       0.924   5.899   0.000  0.00  0.00    -0.267 OA
ATOM      2  C   UNL     1       2.223   6.649   0.000  0.00  0.00    +0.260 A 
ATOM      3  C   UNL     1       2.223   8.149   0.000  0.00  0.00    +0.030 A 
ATOM      4  C   UNL     1       0.924   8.899   0.000  0.00  0.00    +0.051 C 
ATOM      5  C   UNL     1       3.522   8.899   0.000  0.00  0.00    +0.101 A 
ATOM      6  N   UNL     1       4.821   8.149   0.000  0.00  0.00    -0.274 N 
ATOM      7  C   UNL     1       4.821   6.649   0.000  0.00  0.00    +0.334 A 
ATOM      8  O   UNL     1       6.120   5.899   0.000  0.00  0.00    -0.246 OA
ATOM     19  N   UNL     1       3.522   5.899   0.000  0.00  0.00    -0.256 N 
ENDROOT
BRANCH   6   9
ATOM      9  C1* UNL     1       6.120   8.899   0.000  0.00  0.00    +0.226 C 
ATOM     10  C2* UNL     1       7.490   8.289   0.000  0.00  0.00    +0.088 C 
ATOM     11  C3* UNL     1       8.494   9.404   0.000  0.00  0.00    +0.150 C 
ATOM     14  C4* UNL     1       7.744  10.703   0.000  0.00  0.00    +0.175 C 
ATOM     18  O4* UNL     1       6.277  10.391   0.000  0.00  0.00    -0.348 OA
BRANCH  11  12
ATOM     12  O3* UNL     1       9.986   9.247   0.000  0.00  0.00    -0.389 OA
ATOM     13  H3* UNL     1      10.381   8.361   0.000  0.00  0.00    +0.210 HD
ENDBRANCH  11  12
BRANCH  14  15
ATOM     15  C5* UNL     1       8.354  12.073   0.000  0.00  0.00    +0.190 C 
BRANCH  15  16
ATOM     16  O5* UNL     1       9.846  12.230   0.000  0.00  0.00    -0.392 OA
ATOM     17  H5* UNL     1      10.416  11.446   0.000  0.00  0.00    +0.210 HD
ENDBRANCH  15  16
ENDBRANCH  14  15
ENDBRANCH   6   9
BRANCH  19  20
ATOM     20  C   UNL     1       3.522   4.399   0.000  0.00  0.00    +0.165 C 
BRANCH  20  21
ATOM     21  C   UNL     1       2.223   3.650   0.000  0.00  0.00    -0.028 A 
ATOM     22  C   UNL     1       0.924   4.399   0.000  0.00  0.00    +0.005 A 
ATOM     23  C   UNL     1      -0.375   3.650   0.000  0.00  0.00    +0.000 A 
ATOM     24  C   UNL     1      -0.375   2.150   0.000  0.00  0.00    +0.000 A 
ATOM     25  C   UNL     1       0.924   1.400   0.000  0.00  0.00    +0.000 A 
ATOM     26  C   UNL     1       2.223   2.150   0.000  0.00  0.00    +0.005 A 
ENDBRANCH  20  21
ENDBRANCH  19  20
TORSDOF 6