REMARK  Name = 197049
REMARK  5 active torsions:
REMARK  status: ('A' for Active; 'I' for Inactive)
REMARK    1  A    between atoms: C_2  and  C_6
REMARK    2  A    between atoms: C_3  and  N_12
REMARK    3  A    between atoms: O_4  and  C_6
REMARK    4  A    between atoms: O_4  and  C_10
REMARK    5  A    between atoms: C_10  and  C_11
REMARK                            x       y       z     vdW  Elec       q    Type
REMARK                         _______ _______ _______ _____ _____    ______ ____
ROOT
ATOM      1  C   UNL     1       1.911   0.499   0.000  0.00  0.00    +0.079 A 
ATOM      2  S   UNL     1       2.965  -0.569   0.000  0.00  0.00    -0.042 S 
ATOM      3  S   UNL     1       2.275  -1.901   0.000  0.00  0.00    -0.036 S 
ATOM      4  C   UNL     1       0.795  -1.656   0.000  0.00  0.00    +0.085 A 
ATOM      8  C   UNL     1       0.570  -0.173   0.000  0.00  0.00    +0.108 A 
ATOM     14  S   UNL     1       2.156   1.979   0.000  0.00  0.00    -0.043 S 
ENDROOT
BRANCH   4   5
ATOM      5  N   UNL     1      -0.272  -2.710   0.000  0.00  0.00    -0.352 N 
ATOM      6  H   UNL     1      -0.024  -3.663   0.000  0.00  0.00    +0.143 HD
ATOM      7  H   UNL     1      -1.222  -2.449   0.000  0.00  0.00    +0.143 HD
ENDBRANCH   4   5
BRANCH   8   9
ATOM      9  C   UNL     1      -0.762   0.516   0.000  0.00  0.00    +0.343 C 
ATOM     10  O   UNL     1      -0.830   2.015   0.000  0.00  0.00    -0.245 OA
BRANCH   9  11
ATOM     11  O   UNL     1      -2.025  -0.292   0.000  0.00  0.00    -0.461 OA
BRANCH  11  12
ATOM     12  C   UNL     1      -3.357   0.397   0.000  0.00  0.00    +0.229 C 
ATOM     13  C   UNL     1      -3.426   1.896   0.000  0.00  0.00    +0.048 C 
ENDBRANCH  11  12
ENDBRANCH   9  11
ENDBRANCH   8   9
TORSDOF 4