REMARK  Name = 111847
REMARK  4 active torsions:
REMARK  status: ('A' for Active; 'I' for Inactive)
REMARK    1  A    between atoms: N_1  and  C_7
REMARK    2  A    between atoms: C_5  and  O_19
REMARK    3  A    between atoms: C_8  and  C_18
REMARK    4  A    between atoms: C_9  and  O_20
REMARK                            x       y       z     vdW  Elec       q    Type
REMARK                         _______ _______ _______ _____ _____    ______ ____
ROOT
ATOM      3  C   UNL     1      -4.172  -4.774   0.000  0.00  0.00    +0.042 A 
ATOM      4  C   UNL     1      -5.471  -5.524   0.000  0.00  0.00    -0.006 A 
ATOM      5  C   UNL     1      -6.770  -4.774   0.000  0.00  0.00    +0.009 A 
ATOM      6  C   UNL     1      -8.069  -5.524   0.000  0.00  0.00    +0.001 A 
ATOM      7  C   UNL     1      -8.069  -7.024   0.000  0.00  0.00    +0.001 A 
ATOM      8  C   UNL     1      -6.770  -7.774   0.000  0.00  0.00    +0.008 A 
ATOM      9  C   UNL     1      -5.471  -7.024   0.000  0.00  0.00    -0.017 A 
ATOM     10  C   UNL     1      -4.172  -7.774   0.000  0.00  0.00    +0.012 A 
ATOM     11  C   UNL     1      -2.873  -7.024   0.000  0.00  0.00    +0.046 A 
ATOM     12  C   UNL     1      -2.873  -5.524   0.000  0.00  0.00    +0.126 A 
ENDROOT
BRANCH   3   2
ATOM      1  N   UNL     1      -2.873  -2.525   0.000  0.00  0.00    -0.251 NA
ATOM      2  C   UNL     1      -4.172  -3.275   0.000  0.00  0.00    +0.123 C 
BRANCH   1  15
ATOM     15  C   UNL     1      -2.873  -0.050   0.000  0.00  0.00    +0.105 A 
ATOM     16  C   UNL     1      -1.574   0.701   0.000  0.00  0.00    +0.031 A 
ATOM     17  C   UNL     1      -1.574   2.200   0.000  0.00  0.00    +0.002 A 
ATOM     18  C   UNL     1      -2.873   2.950   0.000  0.00  0.00    +0.004 A 
ATOM     19  C   UNL     1      -4.172   2.200   0.000  0.00  0.00    +0.047 A 
ATOM     20  C   UNL     1      -4.172   0.701   0.000  0.00  0.00    +0.142 A 
BRANCH  20  21
ATOM     21  O   UNL     1      -5.471  -0.050   0.000  0.00  0.00    -0.505 OA
ATOM     22  H   UNL     1      -6.282   0.419   0.000  0.00  0.00    +0.292 HD
ENDBRANCH  20  21
ENDBRANCH   1  15
ENDBRANCH   3   2
BRANCH  12  13
ATOM     13  O   UNL     1      -1.574  -4.774   0.000  0.00  0.00    -0.506 OA
ATOM     14  H   UNL     1      -0.762  -5.243   0.000  0.00  0.00    +0.292 HD
ENDBRANCH  12  13
TORSDOF 4