REMARK  Name = 134784
REMARK  2 active torsions:
REMARK  status: ('A' for Active; 'I' for Inactive)
REMARK    1  A    between atoms: C_6  and  C_12
REMARK    2  A    between atoms: C_9  and  C_13
REMARK                            x       y       z     vdW  Elec       q    Type
REMARK                         _______ _______ _______ _____ _____    ______ ____
ROOT
ATOM      1  O   UNL     1      -0.566   4.169   0.000  0.00  0.00    -0.461 OA
ATOM      2  C   UNL     1      -0.102   2.743   0.000  0.00  0.00    +0.240 C 
ATOM      3  C   UNL     1       1.398   2.743   0.000  0.00  0.00    +0.064 C 
ATOM      4  C   UNL     1       2.279   1.529   0.000  0.00  0.00    +0.016 C 
ATOM      5  C   UNL     1       1.861   4.169   0.000  0.00  0.00    +0.080 C 
ATOM      6  C   UNL     1       3.288   4.633   0.000  0.00  0.00    +0.108 C 
ATOM      7  C   UNL     1       4.501   3.751   0.000  0.00  0.00    +0.081 C 
ATOM      8  C   UNL     1       5.715   4.633   0.000  0.00  0.00    +0.031 C 
ATOM      9  C   UNL     1       7.141   4.169   0.000  0.00  0.00    +0.011 C 
ATOM     10  C   UNL     1       5.251   6.059   0.000  0.00  0.00    +0.232 C 
ATOM     11  O   UNL     1       3.751   6.059   0.000  0.00  0.00    -0.495 OA
ATOM     12  C   UNL     1       0.647   5.051   0.000  0.00  0.00    +0.339 C 
ATOM     13  O   UNL     1       0.647   6.551   0.000  0.00  0.00    -0.245 OA
ENDROOT
TORSDOF 0