REMARK  Name = 19096
REMARK  7 active torsions:
REMARK  status: ('A' for Active; 'I' for Inactive)
REMARK    1  A    between atoms: N_3  and  C_16
REMARK    2  A    between atoms: C_8  and  O_13
REMARK    3  A    between atoms: C_9  and  O_10
REMARK    4  A    between atoms: O_10  and  C_11
REMARK    5  A    between atoms: C_11  and  C_12
REMARK    6  A    between atoms: O_13  and  C_14
REMARK    7  A    between atoms: C_14  and  C_15
REMARK                            x       y       z     vdW  Elec       q    Type
REMARK                         _______ _______ _______ _____ _____    ______ ____
ROOT
ATOM      1  N   UNL     1      -5.656  -4.140   0.000  0.00  0.00    -0.159 NA
ATOM      2  C   UNL     1      -5.656  -2.640   0.000  0.00  0.00    +0.323 A 
ATOM      6  N   UNL     1      -4.357  -1.890   0.000  0.00  0.00    -0.175 NA
ATOM      7  C   UNL     1      -3.058  -2.640   0.000  0.00  0.00    +0.168 A 
ATOM      8  C   UNL     1      -3.058  -4.140   0.000  0.00  0.00    +0.100 A 
ATOM      9  C   UNL     1      -1.632  -4.604   0.000  0.00  0.00    +0.149 A 
ATOM     10  N   UNL     1      -0.750  -3.390   0.000  0.00  0.00    -0.177 NA
ATOM     11  N   UNL     1      -1.632  -2.177   0.000  0.00  0.00    -0.249 N 
ATOM     12  C   UNL     1      -1.168  -0.750   0.000  0.00  0.00    +0.174 C 
ATOM     13  C   UNL     1      -4.357  -4.890   0.000  0.00  0.00    +0.232 A 
ENDROOT
BRANCH   2   3
ATOM      3  O   UNL     1      -6.955  -1.890   0.000  0.00  0.00    -0.463 OA
BRANCH   3   4
ATOM      4  C   UNL     1      -8.254  -2.640   0.000  0.00  0.00    +0.229 C 
ATOM      5  C   UNL     1      -9.553  -1.890   0.000  0.00  0.00    +0.048 C 
ENDBRANCH   3   4
ENDBRANCH   2   3
BRANCH  13  14
ATOM     14  O   UNL     1      -4.357  -6.390   0.000  0.00  0.00    -0.476 OA
BRANCH  14  15
ATOM     15  C   UNL     1      -5.656  -7.140   0.000  0.00  0.00    +0.227 C 
ATOM     16  C   UNL     1      -6.955  -6.390   0.000  0.00  0.00    +0.048 C 
ENDBRANCH  14  15
ENDBRANCH  13  14
TORSDOF 4