REMARK  Name = 13487
REMARK  8 active torsions:
REMARK  status: ('A' for Active; 'I' for Inactive)
REMARK    1  A    between atoms: C_4  and  C_24
REMARK    2  A    between atoms: C_5  and  N_25
REMARK    3  A    between atoms: C_13  and  C_17
REMARK    4  A    between atoms: C_14  and  C_23
REMARK    5  A    between atoms: N_25  and  C_26
REMARK    6  A    between atoms: N_25  and  C_28
REMARK    7  A    between atoms: C_26  and  C_27
REMARK    8  A    between atoms: C_28  and  C_29
REMARK                            x       y       z     vdW  Elec       q    Type
REMARK                         _______ _______ _______ _____ _____    ______ ____
ROOT
ATOM      1  N   UNL     1      -9.843   9.750   0.000  0.00  0.00    -0.247 NA
ATOM      2  C   UNL     1     -11.142  10.500   0.000  0.00  0.00    +0.072 A 
ATOM      3  C   UNL     1     -12.441   9.750   0.000  0.00  0.00    +0.008 A 
ATOM      4  C   UNL     1     -13.740  10.500   0.000  0.00  0.00    +0.010 A 
ATOM      5  C   UNL     1     -13.740  12.000   0.000  0.00  0.00    +0.001 A 
ATOM      6  C   UNL     1     -12.441  12.750   0.000  0.00  0.00    +0.002 A 
ATOM      7  C   UNL     1     -12.441   8.250   0.000  0.00  0.00    -0.007 A 
ATOM     14  C   UNL     1     -11.142   7.500   0.000  0.00  0.00    +0.037 A 
ATOM     15  C   UNL     1     -11.142  12.000   0.000  0.00  0.00    +0.028 A 
ATOM     16  C   UNL     1      -9.843   8.250   0.000  0.00  0.00    +0.065 A 
ENDROOT
BRANCH   7   8
ATOM      8  C   UNL     1     -13.740   7.500   0.000  0.00  0.00    -0.017 A 
ATOM      9  C   UNL     1     -15.039   8.250   0.000  0.00  0.00    +0.008 A 
ATOM     10  C   UNL     1     -16.339   7.500   0.000  0.00  0.00    +0.001 A 
ATOM     11  C   UNL     1     -16.339   6.000   0.000  0.00  0.00    +0.000 A 
ATOM     12  C   UNL     1     -15.039   5.250   0.000  0.00  0.00    +0.001 A 
ATOM     13  C   UNL     1     -13.740   6.000   0.000  0.00  0.00    +0.008 A 
ENDBRANCH   7   8
BRANCH  16  17
ATOM     17  C   UNL     1      -8.544   7.500   0.000  0.00  0.00    +0.028 C 
ATOM     18  C   UNL     1      -8.544   6.000   0.000  0.00  0.00    +0.010 C 
BRANCH  18  19
ATOM     19  C   UNL     1      -7.245   5.250   0.000  0.00  0.00    -0.025 A 
ATOM     20  C   UNL     1      -7.245   3.750   0.000  0.00  0.00    +0.010 A 
ATOM     21  C   UNL     1      -5.946   3.000   0.000  0.00  0.00    +0.024 A 
ATOM     22  C   UNL     1      -4.647   3.750   0.000  0.00  0.00    +0.030 A 
ATOM     28  C   UNL     1      -4.647   5.250   0.000  0.00  0.00    +0.024 A 
ATOM     29  C   UNL     1      -5.946   6.000   0.000  0.00  0.00    +0.010 A 
BRANCH  22  23
ATOM     23  N   UNL     1      -3.348   3.000   0.000  0.00  0.00    -0.330 N 
BRANCH  23  24
ATOM     24  C   UNL     1      -3.348   1.500   0.000  0.00  0.00    +0.102 C 
ATOM     25  C   UNL     1      -2.049   0.750   0.000  0.00  0.00    +0.024 C 
ENDBRANCH  23  24
BRANCH  23  26
ATOM     26  C   UNL     1      -2.049   3.750   0.000  0.00  0.00    +0.102 C 
ATOM     27  C   UNL     1      -0.750   3.000   0.000  0.00  0.00    +0.024 C 
ENDBRANCH  23  26
ENDBRANCH  22  23
ENDBRANCH  18  19
ENDBRANCH  16  17
TORSDOF 6