REMARK  Name = 109086
REMARK  5 active torsions:
REMARK  status: ('A' for Active; 'I' for Inactive)
REMARK    1  A    between atoms: O_2  and  C_9
REMARK    2  A    between atoms: O_2  and  C_15
REMARK    3  A    between atoms: N_3  and  C_16
REMARK    4  A    between atoms: C_10  and  C_17
REMARK    5  A    between atoms: C_15  and  C_16
REMARK                            x       y       z     vdW  Elec       q    Type
REMARK                         _______ _______ _______ _____ _____    ______ ____
ROOT
ATOM      1  N   UNL     1       0.638   3.206   0.000  0.00  0.00    -0.252 NA
ATOM      2  C   UNL     1      -0.701   2.531   0.000  0.00  0.00    +0.075 A 
ATOM      3  C   UNL     1      -0.786   1.034   0.000  0.00  0.00    +0.042 A 
ATOM      4  C   UNL     1      -2.126   0.359   0.000  0.00  0.00    +0.013 A 
ATOM      5  C   UNL     1      -3.380   1.181   0.000  0.00  0.00    +0.001 A 
ATOM      6  C   UNL     1      -3.295   2.679   0.000  0.00  0.00    +0.002 A 
ATOM      7  C   UNL     1       0.468   0.211   0.000  0.00  0.00    +0.131 A 
ATOM      8  C   UNL     1       1.808   0.886   0.000  0.00  0.00    +0.069 A 
ATOM     15  C   UNL     1      -1.956   3.354   0.000  0.00  0.00    +0.028 A 
ATOM     16  C   UNL     1       1.893   2.384   0.000  0.00  0.00    +0.042 A 
ATOM     17  C   UNL     1       3.232   3.059   0.000  0.00  0.00    +0.066 C 
ENDROOT
BRANCH   7   9
ATOM      9  O   UNL     1       0.383  -1.286   0.000  0.00  0.00    -0.490 OA
BRANCH   9  10
ATOM     10  C   UNL     1       1.761  -1.879   0.000  0.00  0.00    +0.244 C 
BRANCH  10  11
ATOM     11  C   UNL     1       1.937  -3.368   0.000  0.00  0.00    +0.125 C 
BRANCH  11  12
ATOM     12  N   UNL     1       0.735  -4.266   0.000  0.00  0.00    -0.297 NA
ATOM     13  C   UNL     1       0.143  -5.644   0.000  0.00  0.00    +0.100 C 
ATOM     14  C   UNL     1      -0.754  -4.442   0.000  0.00  0.00    +0.100 C 
ENDBRANCH  11  12
ENDBRANCH  10  11
ENDBRANCH   9  10
ENDBRANCH   7   9
TORSDOF 4