REMARK  Name = 140899
REMARK  3 active torsions:
REMARK  status: ('A' for Active; 'I' for Inactive)
REMARK    1  A    between atoms: C_14  and  C_16
REMARK    2  A    between atoms: C_17  and  C_18
REMARK    3  A    between atoms: C_18  and  O_20
REMARK                            x       y       z     vdW  Elec       q    Type
REMARK                         _______ _______ _______ _____ _____    ______ ____
ROOT
ATOM      1  N   UNL     1       4.647   0.750   0.000  0.00  0.00    -0.250 NA
ATOM      2  C   UNL     1       5.946   1.500   0.000  0.00  0.00    +0.064 A 
ATOM      3  C   UNL     1       7.373   1.037   0.000  0.00  0.00    +0.164 C 
ATOM      4  N   UNL     1       8.254   2.250   0.000  0.00  0.00    -0.288 N 
ATOM      5  C   UNL     1       9.754   2.250   0.000  0.00  0.00    +0.240 C 
ATOM     12  O   UNL     1      10.504   0.951   0.000  0.00  0.00    -0.271 OA
ATOM     13  C   UNL     1       7.373   3.463   0.000  0.00  0.00    +0.145 C 
ATOM     14  C   UNL     1       5.946   3.000   0.000  0.00  0.00    -0.007 A 
ATOM     15  C   UNL     1       4.647   3.750   0.000  0.00  0.00    +0.017 A 
ATOM     16  C   UNL     1       3.348   3.000   0.000  0.00  0.00    +0.001 A 
ATOM     17  C   UNL     1       2.049   3.750   0.000  0.00  0.00    +0.010 A 
ATOM     18  C   UNL     1       0.750   3.000   0.000  0.00  0.00    +0.001 A 
ATOM     19  C   UNL     1       0.750   1.500   0.000  0.00  0.00    +0.002 A 
ATOM     20  C   UNL     1       2.049   0.750   0.000  0.00  0.00    +0.028 A 
ATOM     21  C   UNL     1       3.348   1.500   0.000  0.00  0.00    +0.071 A 
ENDROOT
BRANCH   5   6
ATOM      6  C   UNL     1      10.504   3.549   0.000  0.00  0.00    +0.074 C 
ATOM      7  C   UNL     1      12.004   3.549   0.000  0.00  0.00    +0.096 C 
BRANCH   7   8
ATOM      8  C   UNL     1      12.754   4.848   0.000  0.00  0.00    +0.330 C 
ATOM     11  O   UNL     1      14.254   4.848   0.000  0.00  0.00    -0.246 OA
BRANCH   8   9
ATOM      9  O   UNL     1      12.004   6.147   0.000  0.00  0.00    -0.478 OA
ATOM     10  H   UNL     1      12.473   6.959   0.000  0.00  0.00    +0.295 HD
ENDBRANCH   8   9
ENDBRANCH   7   8
ENDBRANCH   5   6
TORSDOF 3