REMARK  Name = 15358
REMARK  5 active torsions:
REMARK  status: ('A' for Active; 'I' for Inactive)
REMARK    1  A    between atoms: C_3  and  N_20
REMARK    2  A    between atoms: C_8  and  N_20
REMARK    3  A    between atoms: C_10  and  N_17
REMARK    4  A    between atoms: C_11  and  S_14
REMARK    5  A    between atoms: N_13  and  S_14
REMARK                            x       y       z     vdW  Elec       q    Type
REMARK                         _______ _______ _______ _____ _____    ______ ____
ROOT
ATOM      5  C   UNL     1      -0.275   7.024   0.000  0.00  0.00    +0.110 A 
ATOM      6  C   UNL     1      -0.275   5.524   0.000  0.00  0.00    +0.296 A 
ATOM     10  C   UNL     1      -1.574   4.774   0.000  0.00  0.00    +0.114 A 
ATOM     11  C   UNL     1      -2.873   5.524   0.000  0.00  0.00    +0.112 A 
ATOM     18  C   UNL     1      -2.873   7.024   0.000  0.00  0.00    +0.031 A 
ATOM     19  C   UNL     1      -1.574   7.774   0.000  0.00  0.00    +0.032 A 
ENDROOT
BRANCH   6   7
ATOM      7  N   UNL     1       1.025   4.774   0.000  0.00  0.00    +0.082 N 
ATOM      8  O   UNL     1       1.025   3.275   0.000  0.00  0.00    +0.042 OA
ATOM      9  O   UNL     1       2.324   5.524   0.000  0.00  0.00    -0.576 OA
ENDBRANCH   6   7
BRANCH  11  12
ATOM     12  S   UNL     1      -4.172   4.774   0.000  0.00  0.00    +0.056 S 
ATOM     13  O   UNL     1      -3.422   3.475   0.000  0.00  0.00    -0.153 OA
ATOM     14  O   UNL     1      -5.471   4.024   0.000  0.00  0.00    -0.153 OA
BRANCH  12  15
ATOM     15  N   UNL     1      -4.922   6.074   0.000  0.00  0.00    -0.204 NA
ATOM     16  H   UNL     1      -5.942   6.074   0.000  0.00  0.00    +0.144 HD
ATOM     17  H   UNL     1      -4.412   6.957   0.000  0.00  0.00    +0.144 HD
ENDBRANCH  12  15
ENDBRANCH  11  12
BRANCH   5   3
ATOM      3  N   UNL     1       1.025   7.774   0.000  0.00  0.00    -0.309 N 
ATOM      4  H   UNL     1       1.877   7.282   0.000  0.00  0.00    +0.152 HD
BRANCH   3   2
ATOM      1  C   UNL     1      -0.275  10.025   0.000  0.00  0.00    +0.023 A 
ATOM      2  C   UNL     1       1.025   9.274   0.000  0.00  0.00    +0.031 A 
ATOM     20  C   UNL     1       2.324  10.025   0.000  0.00  0.00    +0.023 A 
ATOM     21  C   UNL     1       2.324  11.525   0.000  0.00  0.00    +0.002 A 
ATOM     22  C   UNL     1       1.025  12.275   0.000  0.00  0.00    +0.000 A 
ATOM     23  C   UNL     1      -0.275  11.525   0.000  0.00  0.00    +0.002 A 
ENDBRANCH   3   2
ENDBRANCH   5   3
TORSDOF 5