REMARK  Name = 145992
REMARK  4 active torsions:
REMARK  status: ('A' for Active; 'I' for Inactive)
REMARK    1  A    between atoms: O_2  and  C_9
REMARK    2  A    between atoms: O_2  and  C_18
REMARK    3  A    between atoms: C_11  and  N_15
REMARK    4  A    between atoms: C_18  and  C_19
REMARK                            x       y       z     vdW  Elec       q    Type
REMARK                         _______ _______ _______ _____ _____    ______ ____
ROOT
ATOM      1 CL   UNL     1       2.973  -3.650   0.000  0.00  0.00    -0.080 Cl
ATOM      2  C   UNL     1       4.272  -2.900   0.000  0.00  0.00    +0.089 A 
ATOM      3  C   UNL     1       4.272  -1.400   0.000  0.00  0.00    +0.108 A 
ATOM      4  C   UNL     1       5.571  -0.649   0.000  0.00  0.00    +0.275 A 
ATOM      8  C   UNL     1       6.870  -1.400   0.000  0.00  0.00    +0.088 A 
ATOM      9  C   UNL     1       6.870  -2.900   0.000  0.00  0.00    +0.054 A 
ATOM     10  C   UNL     1       5.571  -3.650   0.000  0.00  0.00    +0.140 A 
ENDROOT
BRANCH   4   5
ATOM      5  N   UNL     1       5.571   0.851   0.000  0.00  0.00    +0.080 N 
ATOM      6  O   UNL     1       4.272   1.601   0.000  0.00  0.00    +0.041 OA
ATOM      7  O   UNL     1       6.870   1.601   0.000  0.00  0.00    -0.576 OA
ENDBRANCH   4   5
BRANCH  10  11
ATOM     11  O   UNL     1       5.571  -5.149   0.000  0.00  0.00    -0.481 OA
BRANCH  11  12
ATOM     12  C   UNL     1       6.870  -5.899   0.000  0.00  0.00    +0.324 C 
BRANCH  12  13
ATOM     13  C   UNL     1       8.169  -5.149   0.000  0.00  0.00    +0.253 C 
ATOM     14  O   UNL     1       8.169  -3.650   0.000  0.00  0.00    -0.272 OA
ATOM     15  N   UNL     1       9.468  -5.899   0.000  0.00  0.00    -0.294 N 
ATOM     16  C   UNL     1       9.468  -7.399   0.000  0.00  0.00    +0.136 C 
ATOM     17  C   UNL     1      10.767  -8.149   0.000  0.00  0.00    +0.179 C 
ATOM     18  O   UNL     1      12.066  -7.399   0.000  0.00  0.00    -0.377 OA
ATOM     19  C   UNL     1      12.066  -5.899   0.000  0.00  0.00    +0.179 C 
ATOM     20  C   UNL     1      10.767  -5.149   0.000  0.00  0.00    +0.136 C 
ENDBRANCH  12  13
ENDBRANCH  11  12
ENDBRANCH  10  11
TORSDOF 4