REMARK  Name = 129929
REMARK  4 active torsions:
REMARK  status: ('A' for Active; 'I' for Inactive)
REMARK    1  A    between atoms: C_2  and  N_15
REMARK    2  A    between atoms: C_16  and  O_18
REMARK    3  A    between atoms: O_18  and  C_19
REMARK    4  A    between atoms: C_19  and  C_20
REMARK                            x       y       z     vdW  Elec       q    Type
REMARK                         _______ _______ _______ _____ _____    ______ ____
ROOT
ATOM      1  N   UNL     1       2.223   3.650   0.000  0.00  0.00    -0.247 NA
ATOM      2  C   UNL     1       3.522   4.399   0.000  0.00  0.00    +0.073 A 
ATOM      3  C   UNL     1       4.821   3.650   0.000  0.00  0.00    +0.028 A 
ATOM      4  C   UNL     1       6.120   4.399   0.000  0.00  0.00    +0.002 A 
ATOM      5  C   UNL     1       6.120   5.899   0.000  0.00  0.00    +0.001 A 
ATOM      6  C   UNL     1       4.821   6.649   0.000  0.00  0.00    +0.012 A 
ATOM      7  C   UNL     1       3.522   5.899   0.000  0.00  0.00    +0.022 A 
ATOM      8  C   UNL     1       2.223   6.649   0.000  0.00  0.00    +0.055 A 
ATOM     16  C   UNL     1       0.924   5.899   0.000  0.00  0.00    +0.022 A 
ATOM     17  C   UNL     1      -0.375   6.649   0.000  0.00  0.00    +0.012 A 
ATOM     18  C   UNL     1      -1.674   5.899   0.000  0.00  0.00    +0.001 A 
ATOM     19  C   UNL     1      -1.674   4.399   0.000  0.00  0.00    +0.002 A 
ATOM     20  C   UNL     1      -0.375   3.650   0.000  0.00  0.00    +0.028 A 
ATOM     21  C   UNL     1       0.924   4.399   0.000  0.00  0.00    +0.073 A 
ENDROOT
BRANCH   8   9
ATOM      9  N   UNL     1       2.223   8.149   0.000  0.00  0.00    -0.250 N 
ATOM     10  H   UNL     1       1.370   8.642   0.000  0.00  0.00    +0.158 HD
ATOM     11  C   UNL     1       3.522   8.899   0.000  0.00  0.00    +0.405 C 
ATOM     15  O   UNL     1       3.522  10.400   0.000  0.00  0.00    -0.226 OA
BRANCH  11  12
ATOM     12  O   UNL     1       4.821   8.149   0.000  0.00  0.00    -0.450 OA
BRANCH  12  13
ATOM     13  C   UNL     1       6.120   8.899   0.000  0.00  0.00    +0.230 C 
ATOM     14  C   UNL     1       7.419   8.149   0.000  0.00  0.00    +0.048 C 
ENDBRANCH  12  13
ENDBRANCH  11  12
ENDBRANCH   8   9
TORSDOF 3