REMARK  Name = 196515
REMARK  24 active torsions:
REMARK  status: ('A' for Active; 'I' for Inactive)
REMARK    1  A    between atoms: C_1  and  C_2
REMARK    2  A    between atoms: C_5  and  C_9
REMARK    3  A    between atoms: C_7  and  C_18
REMARK    4  A    between atoms: C_9  and  O_19
REMARK    5  A    between atoms: C_9  and  C_20
REMARK    6  A    between atoms: C_10  and  C_21
REMARK    7  A    between atoms: C_12  and  O_17
REMARK    8  A    between atoms: C_14  and  C_18
REMARK    9  A    between atoms: C_15  and  O_16
REMARK   10  A    between atoms: C_20  and  C_22
REMARK   11  A    between atoms: C_21  and  C_23
REMARK   12  A    between atoms: C_22  and  C_24
REMARK   13  A    between atoms: C_23  and  C_25
REMARK   14  A    between atoms: C_24  and  C_26
REMARK   15  A    between atoms: C_25  and  C_27
REMARK   16  A    between atoms: C_26  and  C_30
REMARK   17  A    between atoms: C_27  and  O_29
REMARK   18  A    between atoms: N_31  and  C_32
REMARK   19  A    between atoms: C_32  and  C_33
REMARK   20  A    between atoms: C_32  and  C_35
REMARK   21  A    between atoms: C_32  and  C_37
REMARK   22  A    between atoms: C_33  and  O_34
REMARK   23  A    between atoms: C_35  and  O_36
REMARK   24  A    between atoms: C_37  and  O_38
REMARK                            x       y       z     vdW  Elec       q    Type
REMARK                         _______ _______ _______ _____ _____    ______ ____
ROOT
ATOM      4  C   UNL     1       4.135 -17.042   0.000  0.00  0.00    +0.086 C 
ENDROOT
BRANCH   4   1
ATOM      1  N   UNL     1       2.635 -17.042   0.000  0.00  0.00    -0.319 NA
ATOM      2  H   UNL     1       2.125 -17.925   0.000  0.00  0.00    +0.119 HD
ATOM      3  H   UNL     1       2.125 -16.158   0.000  0.00  0.00    +0.119 HD
ENDBRANCH   4   1
BRANCH   4   5
ATOM      5  C   UNL     1       5.635 -17.042   0.000  0.00  0.00    +0.182 C 
BRANCH   5   6
ATOM      6  O   UNL     1       6.385 -15.743   0.000  0.00  0.00    -0.393 OA
ATOM      7  H   UNL     1       7.355 -15.743   0.000  0.00  0.00    +0.209 HD
ENDBRANCH   5   6
ENDBRANCH   4   5
BRANCH   4   8
ATOM      8  C   UNL     1       4.135 -15.542   0.000  0.00  0.00    +0.182 C 
BRANCH   8   9
ATOM      9  O   UNL     1       2.836 -14.792   0.000  0.00  0.00    -0.393 OA
ATOM     10  H   UNL     1       2.836 -13.822   0.000  0.00  0.00    +0.209 HD
ENDBRANCH   8   9
ENDBRANCH   4   8
BRANCH   4  11
ATOM     11  C   UNL     1       4.135 -18.542   0.000  0.00  0.00    +0.182 C 
BRANCH  11  12
ATOM     12  O   UNL     1       2.836 -19.292   0.000  0.00  0.00    -0.393 OA
ATOM     13  H   UNL     1       1.996 -18.807   0.000  0.00  0.00    +0.209 HD
ENDBRANCH  11  12
ENDBRANCH   4  11
TORSDOF 7