REMARK  Name = 177862
REMARK  4 active torsions:
REMARK  status: ('A' for Active; 'I' for Inactive)
REMARK    1  A    between atoms: C_5  and  C_22
REMARK    2  A    between atoms: C_5  and  C_23
REMARK    3  A    between atoms: C_10  and  C_14
REMARK    4  A    between atoms: C_24  and  C_26
REMARK                            x       y       z     vdW  Elec       q    Type
REMARK                         _______ _______ _______ _____ _____    ______ ____
ROOT
ATOM      1  O   UNL     1       3.862  -0.201   0.000  0.00  0.00    -0.296 OA
ATOM      2  C   UNL     1       4.472   1.170   0.000  0.00  0.00    +0.143 C 
ATOM      3  C   UNL     1       5.964   1.327   0.000  0.00  0.00    +0.109 C 
ATOM      4  C   UNL     1       6.574   2.697   0.000  0.00  0.00    -0.016 C 
ATOM      5  C   UNL     1       8.066   2.854   0.000  0.00  0.00    +0.061 C 
ATOM     18  C   UNL     1       8.676   4.224   0.000  0.00  0.00    +0.133 C 
ATOM     19  C   UNL     1       7.794   5.438   0.000  0.00  0.00    +0.313 C 
ATOM     20  O   UNL     1       8.404   6.808   0.000  0.00  0.00    -0.250 OA
ATOM     21  O   UNL     1       6.302   5.281   0.000  0.00  0.00    -0.430 OA
ATOM     22  C   UNL     1       5.692   3.910   0.000  0.00  0.00    +0.110 C 
ATOM     23  C   UNL     1       4.200   3.754   0.000  0.00  0.00    +0.088 C 
ATOM     24  C   UNL     1       3.590   2.383   0.000  0.00  0.00    +0.031 C 
ATOM     25  C   UNL     1       2.347   3.222   0.000  0.00  0.00    +0.019 C 
ATOM     26  C   UNL     1       2.548   1.304   0.000  0.00  0.00    +0.019 C 
ENDROOT
BRANCH   5   6
ATOM      6  C   UNL     1       8.947   1.640   0.000  0.00  0.00    -0.014 A 
ATOM      7  C   UNL     1      10.447   1.640   0.000  0.00  0.00    +0.004 A 
ATOM      8  C   UNL     1      11.451   2.755   0.000  0.00  0.00    +0.010 A 
ATOM      9  C   UNL     1      12.918   2.443   0.000  0.00  0.00    +0.001 A 
ATOM     10  C   UNL     1      13.382   1.016   0.000  0.00  0.00    +0.002 A 
ATOM     11  C   UNL     1      12.378  -0.098   0.000  0.00  0.00    +0.027 A 
ATOM     12  C   UNL     1      10.911   0.214   0.000  0.00  0.00    +0.057 A 
ATOM     13  N   UNL     1       9.697  -0.668   0.000  0.00  0.00    -0.287 N 
ATOM     14  C   UNL     1       9.697  -2.168   0.000  0.00  0.00    +0.229 C 
ATOM     15  C   UNL     1      10.996  -2.918   0.000  0.00  0.00    +0.113 C 
ATOM     16  O   UNL     1       8.398  -2.918   0.000  0.00  0.00    -0.273 OA
ATOM     17  C   UNL     1       8.484   0.214   0.000  0.00  0.00    +0.099 A 
ENDBRANCH   5   6
TORSDOF 1