REMARK  Name = 135894
REMARK  5 active torsions:
REMARK  status: ('A' for Active; 'I' for Inactive)
REMARK    1  A    between atoms: C_3  and  C_11
REMARK    2  A    between atoms: C_4  and  C_15
REMARK    3  A    between atoms: C_5  and  C_7
REMARK    4  A    between atoms: C_5  and  C_12
REMARK    5  A    between atoms: N_13  and  O_14
REMARK                            x       y       z     vdW  Elec       q    Type
REMARK                         _______ _______ _______ _____ _____    ______ ____
ROOT
ATOM      1  C   UNL     1      -4.647  -0.750   0.000  0.00  0.00    +0.031 C 
ATOM      2  C   UNL     1      -3.348  -1.500   0.000  0.00  0.00    +0.105 C 
ATOM      3  N   UNL     1      -2.049  -0.750   0.000  0.00  0.00    -0.087 NA
ATOM      6  C   UNL     1      -3.348  -3.000   0.000  0.00  0.00    -0.025 C 
ATOM      7  C   UNL     1      -2.049  -3.750   0.000  0.00  0.00    +0.046 C 
ATOM      8  C   UNL     1      -4.647  -3.750   0.000  0.00  0.00    -0.007 C 
ATOM      9  C   UNL     1      -5.946  -3.000   0.000  0.00  0.00    +0.054 C 
ATOM     10  C   UNL     1      -6.459  -4.410   0.000  0.00  0.00    +0.024 C 
ATOM     15  C   UNL     1      -5.946  -1.500   0.000  0.00  0.00    -0.057 C 
ATOM     16  C   UNL     1      -7.245  -0.750   0.000  0.00  0.00    +0.040 C 
ENDROOT
BRANCH   9  11
ATOM     11  C   UNL     1      -8.384  -2.570   0.000  0.00  0.00    +0.203 C 
ATOM     12 CL   UNL     1      -8.644  -4.047   0.000  0.00  0.00    -0.082 Cl
ATOM     13 CL   UNL     1      -9.861  -2.310   0.000  0.00  0.00    -0.082 Cl
ATOM     14 CL   UNL     1      -8.123  -1.093   0.000  0.00  0.00    -0.082 Cl
ENDBRANCH   9  11
BRANCH   3   4
ATOM      4  O   UNL     1      -0.750  -1.500   0.000  0.00  0.00    -0.409 OA
ATOM      5  H   UNL     1      -0.750  -2.437   0.000  0.00  0.00    +0.328 HD
ENDBRANCH   3   4
TORSDOF 2