REMARK  Name = 177866
REMARK  0 active torsions:
REMARK  status: ('A' for Active; 'I' for Inactive)
REMARK                            x       y       z     vdW  Elec       q    Type
REMARK                         _______ _______ _______ _____ _____    ______ ____
ROOT
ATOM      1  O   UNL     1       3.057   0.706   0.000  0.00  0.00    -0.286 OA
ATOM      2  C   UNL     1       4.356  -0.044   0.000  0.00  0.00    +0.201 C 
ATOM      3  C   UNL     1       4.356  -1.545   0.000  0.00  0.00    +0.031 A 
ATOM      4  C   UNL     1       5.655  -2.295   0.000  0.00  0.00    +0.000 A 
ATOM      5  C   UNL     1       5.655  -3.795   0.000  0.00  0.00    -0.017 A 
ATOM      6  C   UNL     1       4.356  -4.545   0.000  0.00  0.00    +0.008 A 
ATOM      7  C   UNL     1       3.057  -3.795   0.000  0.00  0.00    +0.001 A 
ATOM      8  C   UNL     1       6.954  -4.545   0.000  0.00  0.00    +0.008 A 
ATOM      9  C   UNL     1       8.253  -3.795   0.000  0.00  0.00    +0.001 A 
ATOM     10  C   UNL     1       8.253  -2.295   0.000  0.00  0.00    +0.008 A 
ATOM     11  C   UNL     1       6.954  -1.545   0.000  0.00  0.00    -0.015 A 
ATOM     12  C   UNL     1       6.954  -0.044   0.000  0.00  0.00    +0.027 C 
ATOM     13  C   UNL     1       3.057  -2.295   0.000  0.00  0.00    +0.012 A 
ATOM     14  C   UNL     1       5.655   0.706   0.000  0.00  0.00    +0.066 C 
ATOM     15 BR   UNL     1       5.655   2.205   0.000  0.00  0.00    -0.046 Br
ENDROOT
TORSDOF 0