REMARK  Name = 178873
REMARK  6 active torsions:
REMARK  status: ('A' for Active; 'I' for Inactive)
REMARK    1  A    between atoms: C_12  and  C_13
REMARK    2  A    between atoms: C_12  and  O_17
REMARK    3  A    between atoms: C_13  and  C_14
REMARK    4  A    between atoms: C_14  and  O_15
REMARK    5  A    between atoms: O_15  and  C_16
REMARK    6  A    between atoms: O_17  and  C_18
REMARK                            x       y       z     vdW  Elec       q    Type
REMARK                         _______ _______ _______ _____ _____    ______ ____
ROOT
ATOM      8  C   UNL     1       8.356   0.882   0.000  0.00  0.00    +0.082 C 
ENDROOT
BRANCH   8   7
ATOM      7  C   UNL     1       7.606  -0.417   0.000  0.00  0.00    +0.231 C 
BRANCH   7   6
ATOM      6  O   UNL     1       6.106  -0.417   0.000  0.00  0.00    -0.499 OA
BRANCH   6   5
ATOM      1  O   UNL     1       1.548   1.632   0.000  0.00  0.00    -0.461 OA
ATOM      2  C   UNL     1       1.548   0.132   0.000  0.00  0.00    +0.237 C 
ATOM      3  C   UNL     1       2.974  -0.332   0.000  0.00  0.00    +0.086 C 
ATOM      4  C   UNL     1       3.856   0.882   0.000  0.00  0.00    +0.074 C 
ATOM      5  C   UNL     1       5.356   0.882   0.000  0.00  0.00    +0.197 C 
ATOM     18  C   UNL     1       2.974   2.095   0.000  0.00  0.00    +0.338 C 
ATOM     19  O   UNL     1       3.438   3.522   0.000  0.00  0.00    -0.245 OA
ENDBRANCH   6   5
ENDBRANCH   7   6
ENDBRANCH   8   7
BRANCH   8   9
ATOM      9  C   UNL     1       9.856   0.882   0.000  0.00  0.00    +0.231 C 
BRANCH   9  10
ATOM     10  O   UNL     1      10.606  -0.417   0.000  0.00  0.00    -0.499 OA
BRANCH  10  11
ATOM     11  C   UNL     1      12.106  -0.417   0.000  0.00  0.00    +0.197 C 
ATOM     12  C   UNL     1      12.856  -1.716   0.000  0.00  0.00    +0.074 C 
ATOM     13  C   UNL     1      12.246  -3.086   0.000  0.00  0.00    +0.086 C 
ATOM     14  C   UNL     1      13.361  -4.090   0.000  0.00  0.00    +0.237 C 
ATOM     15  O   UNL     1      14.660  -3.340   0.000  0.00  0.00    -0.461 OA
ATOM     16  C   UNL     1      14.348  -1.873   0.000  0.00  0.00    +0.338 C 
ATOM     17  O   UNL     1      15.351  -0.758   0.000  0.00  0.00    -0.245 OA
ENDBRANCH  10  11
ENDBRANCH   9  10
ENDBRANCH   8   9
TORSDOF 6