REMARK  Name = 109128
REMARK  8 active torsions:
REMARK  status: ('A' for Active; 'I' for Inactive)
REMARK    1  A    between atoms: N_2  and  C_5
REMARK    2  A    between atoms: C_3  and  C_27
REMARK    3  A    between atoms: C_4  and  C_28
REMARK    4  A    between atoms: C_12  and  C_26
REMARK    5  A    between atoms: C_17  and  O_22
REMARK    6  A    between atoms: O_22  and  C_23
REMARK    7  A    between atoms: C_23  and  C_25
REMARK    8  A    between atoms: C_28  and  C_30
REMARK                            x       y       z     vdW  Elec       q    Type
REMARK                         _______ _______ _______ _____ _____    ______ ____
ROOT
ATOM      1  O   UNL     1      -4.105  -3.236   0.000  0.00  0.00    -0.297 OA
ATOM      2  C   UNL     1      -4.105  -4.736   0.000  0.00  0.00    +0.140 C 
ATOM      3  C   UNL     1      -5.404  -5.486   0.000  0.00  0.00    +0.079 C 
ATOM      4  C   UNL     1      -5.404  -6.986   0.000  0.00  0.00    +0.006 C 
ATOM      5  C   UNL     1      -6.703  -7.736   0.000  0.00  0.00    -0.026 C 
ATOM      6  C   UNL     1      -6.703  -6.236   0.000  0.00  0.00    +0.012 C 
ATOM      7  C   UNL     1      -6.703  -9.236   0.000  0.00  0.00    -0.001 C 
ATOM      8  C   UNL     1      -5.404  -9.986   0.000  0.00  0.00    +0.004 C 
ATOM      9  C   UNL     1      -4.105  -9.236   0.000  0.00  0.00    +0.004 C 
ATOM     10  C   UNL     1      -8.002  -9.986   0.000  0.00  0.00    +0.048 C 
ATOM     11  C   UNL     1      -9.301  -9.236   0.000  0.00  0.00    +0.177 C 
ATOM     16  C   UNL     1      -9.301  -7.736   0.000  0.00  0.00    +0.045 C 
ATOM     17  C   UNL     1      -8.002  -6.986   0.000  0.00  0.00    +0.011 C 
ATOM     18  C   UNL     1      -4.105  -7.736   0.000  0.00  0.00    -0.003 C 
ATOM     19  C   UNL     1      -2.806  -6.986   0.000  0.00  0.00    +0.008 C 
ATOM     20  C   UNL     1      -1.379  -7.450   0.000  0.00  0.00    +0.024 C 
ATOM     21  C   UNL     1      -0.498  -6.236   0.000  0.00  0.00    +0.068 C 
ATOM     22  C   UNL     1      -1.379  -5.023   0.000  0.00  0.00    +0.085 C 
ATOM     29  C   UNL     1      -2.806  -5.486   0.000  0.00  0.00    +0.040 C 
ATOM     30  C   UNL     1      -2.649  -3.994   0.000  0.00  0.00    +0.020 C 
ENDROOT
BRANCH  22  23
ATOM     23  C   UNL     1      -0.916  -3.596   0.000  0.00  0.00    +0.136 C 
ATOM     24  C   UNL     1       0.551  -3.284   0.000  0.00  0.00    +0.086 C 
ATOM     25  O   UNL     1      -1.920  -2.481   0.000  0.00  0.00    -0.297 OA
ENDBRANCH  22  23
BRANCH  21  26
ATOM     26  N   UNL     1       1.002  -6.236   0.000  0.00  0.00    -0.296 NA
ATOM     27  C   UNL     1       2.301  -6.986   0.000  0.00  0.00    +0.100 C 
ATOM     28  C   UNL     1       2.301  -5.486   0.000  0.00  0.00    +0.100 C 
ENDBRANCH  21  26
BRANCH  11  12
ATOM     12  O   UNL     1     -10.600  -9.986   0.000  0.00  0.00    -0.462 OA
BRANCH  12  13
ATOM     13  C   UNL     1     -11.899  -9.236   0.000  0.00  0.00    +0.304 C 
ATOM     14  C   UNL     1     -11.899  -7.736   0.000  0.00  0.00    +0.136 C 
ATOM     15  O   UNL     1     -13.198  -9.986   0.000  0.00  0.00    -0.251 OA
ENDBRANCH  12  13
ENDBRANCH  11  12
TORSDOF 4