REMARK  Name = 117386
REMARK  5 active torsions:
REMARK  status: ('A' for Active; 'I' for Inactive)
REMARK    1  A    between atoms: C_5  and  C_7
REMARK    2  A    between atoms: C_7  and  C_8
REMARK    3  A    between atoms: C_8  and  C_9
REMARK    4  A    between atoms: C_9  and  O_11
REMARK    5  A    between atoms: N_12  and  O_13
REMARK                            x       y       z     vdW  Elec       q    Type
REMARK                         _______ _______ _______ _____ _____    ______ ____
ROOT
ATOM      6  C   UNL     1       0.361   7.322   0.000  0.00  0.00    +0.169 C 
ATOM      7  N   UNL     1       1.111   6.023   0.000  0.00  0.00    -0.084 NA
ENDROOT
BRANCH   7   8
ATOM      8  O   UNL     1       2.611   6.023   0.000  0.00  0.00    -0.409 OA
ATOM      9  H   UNL     1       3.080   5.212   0.000  0.00  0.00    +0.328 HD
ENDBRANCH   7   8
BRANCH   6  10
ATOM     10  C   UNL     1       1.111   8.621   0.000  0.00  0.00    +0.355 C 
ATOM     13  O   UNL     1       2.611   8.621   0.000  0.00  0.00    -0.244 OA
BRANCH  10  11
ATOM     11  O   UNL     1       0.361   9.920   0.000  0.00  0.00    -0.476 OA
ATOM     12  H   UNL     1       0.830  10.732   0.000  0.00  0.00    +0.295 HD
ENDBRANCH  10  11
ENDBRANCH   6  10
BRANCH   6   5
ATOM      5  C   UNL     1      -1.139   7.322   0.000  0.00  0.00    +0.125 C 
BRANCH   5   4
ATOM      1  H   UNL     1      -2.236   2.157   0.000  0.00  0.00    +0.190 HD
ATOM      2  N   UNL     1      -2.393   3.649   0.000  0.00  0.00    -0.265 N 
ATOM      3  C   UNL     1      -1.279   4.653   0.000  0.00  0.00    +0.130 A 
ATOM      4  C   UNL     1      -1.889   6.023   0.000  0.00  0.00    +0.089 A 
ATOM     14  N   UNL     1      -3.380   5.866   0.000  0.00  0.00    -0.134 NA
ATOM     15  N   UNL     1      -3.692   4.399   0.000  0.00  0.00    -0.068 NA
ENDBRANCH   5   4
ENDBRANCH   6   5
TORSDOF 5