REMARK  Name = 134580
REMARK  5 active torsions:
REMARK  status: ('A' for Active; 'I' for Inactive)
REMARK    1  A    between atoms: C_2  and  C_10
REMARK    2  A    between atoms: C_3  and  O_11
REMARK    3  A    between atoms: CA_6  and  C_7
REMARK    4  A    between atoms: C_7  and  OXT_9
REMARK    5  A    between atoms: O_11  and  C_12
REMARK                            x       y       z     vdW  Elec       q    Type
REMARK                         _______ _______ _______ _____ _____    ______ ____
ROOT
ATOM      1  N   UNL     1       1.574   4.774   0.000  0.00  0.00    -0.242 NA
ATOM      2  CA  UNL     1       1.574   3.275   0.000  0.00  0.00    +0.148 A 
ATOM      7  C   UNL     1       2.873   2.525   0.000  0.00  0.00    +0.038 A 
ATOM      8  C   UNL     1       4.172   3.275   0.000  0.00  0.00    +0.050 A 
ATOM      9  C   UNL     1       4.172   4.774   0.000  0.00  0.00    +0.141 A 
ATOM     12  C   UNL     1       2.873   5.524   0.000  0.00  0.00    +0.081 A 
ATOM     13  C   UNL     1       2.873   7.024   0.000  0.00  0.00    +0.069 C 
ENDROOT
BRANCH   2   3
ATOM      3  C   UNL     1       0.275   2.525   0.000  0.00  0.00    +0.355 C 
ATOM      6  O   UNL     1      -1.025   3.275   0.000  0.00  0.00    -0.243 OA
BRANCH   3   4
ATOM      4  OXT UNL     1       0.275   1.025   0.000  0.00  0.00    -0.476 OA
ATOM      5  HXT UNL     1      -0.537   0.556   0.000  0.00  0.00    +0.295 HD
ENDBRANCH   3   4
ENDBRANCH   2   3
BRANCH   9  10
ATOM     10  O   UNL     1       5.471   5.524   0.000  0.00  0.00    -0.493 OA
ATOM     11  C   UNL     1       6.770   4.774   0.000  0.00  0.00    +0.277 C 
ENDBRANCH   9  10
TORSDOF 3