REMARK  Name = 118628
REMARK  5 active torsions:
REMARK  status: ('A' for Active; 'I' for Inactive)
REMARK    1  A    between atoms: C_2  and  O_21
REMARK    2  A    between atoms: C_5  and  O_20
REMARK    3  A    between atoms: C_7  and  O_16
REMARK    4  A    between atoms: O_16  and  C_17
REMARK    5  A    between atoms: C_17  and  C_19
REMARK                            x       y       z     vdW  Elec       q    Type
REMARK                         _______ _______ _______ _____ _____    ______ ____
ROOT
ATOM      1  O   UNL     1      -6.221  -4.774   0.000  0.00  0.00    -0.292 OA
ATOM      2  C   UNL     1      -6.221  -3.275   0.000  0.00  0.00    +0.167 C 
ATOM      3  C   UNL     1      -7.520  -2.525   0.000  0.00  0.00    +0.074 C 
ATOM      4  C   UNL     1      -8.819  -3.275   0.000  0.00  0.00    +0.039 C 
ATOM      5  C   UNL     1     -10.118  -2.525   0.000  0.00  0.00    -0.027 C 
ATOM      6  C   UNL     1     -10.118  -1.025   0.000  0.00  0.00    +0.013 C 
ATOM      7  C   UNL     1      -8.819  -0.275   0.000  0.00  0.00    +0.206 C 
ATOM     12  C   UNL     1      -7.520  -1.025   0.000  0.00  0.00    +0.078 C 
ATOM     13  C   UNL     1      -6.221  -0.275   0.000  0.00  0.00    +0.156 C 
ATOM     16  C   UNL     1      -4.922  -1.025   0.000  0.00  0.00    +0.033 A 
ATOM     17  C   UNL     1      -3.623  -0.275   0.000  0.00  0.00    +0.123 A 
ATOM     20  C   UNL     1      -2.324  -1.025   0.000  0.00  0.00    +0.046 A 
ATOM     21  C   UNL     1      -2.324  -2.525   0.000  0.00  0.00    +0.004 A 
ATOM     22  C   UNL     1      -3.623  -3.275   0.000  0.00  0.00    +0.012 A 
ATOM     23  C   UNL     1      -4.922  -2.525   0.000  0.00  0.00    +0.027 A 
ENDROOT
BRANCH  13  14
ATOM     14  O   UNL     1      -6.221   1.226   0.000  0.00  0.00    -0.387 OA
ATOM     15  H   UNL     1      -5.381   1.711   0.000  0.00  0.00    +0.210 HD
ENDBRANCH  13  14
BRANCH  17  18
ATOM     18  O   UNL     1      -3.623   1.226   0.000  0.00  0.00    -0.506 OA
ATOM     19  H   UNL     1      -2.811   1.694   0.000  0.00  0.00    +0.292 HD
ENDBRANCH  17  18
BRANCH   7   8
ATOM      8  O   UNL     1      -8.819   1.226   0.000  0.00  0.00    -0.457 OA
BRANCH   8   9
ATOM      9  C   UNL     1     -10.118   1.976   0.000  0.00  0.00    +0.305 C 
ATOM     10  C   UNL     1     -10.118   3.475   0.000  0.00  0.00    +0.136 C 
ATOM     11  O   UNL     1     -11.417   1.226   0.000  0.00  0.00    -0.251 OA
ENDBRANCH   8   9
ENDBRANCH   7   8
TORSDOF 4