REMARK  Name = 157725
REMARK  4 active torsions:
REMARK  status: ('A' for Active; 'I' for Inactive)
REMARK    1  A    between atoms: N_3  and  C_20
REMARK    2  A    between atoms: C_10  and  C_11
REMARK    3  A    between atoms: C_20  and  C_21
REMARK    4  A    between atoms: C_21  and  O_23
REMARK                            x       y       z     vdW  Elec       q    Type
REMARK                         _______ _______ _______ _____ _____    ______ ____
ROOT
ATOM      1  O   UNL     1      -9.871  -0.075   0.000  0.00  0.00    -0.273 OA
ATOM      2  C   UNL     1      -9.220   1.277   0.000  0.00  0.00    +0.242 C 
ATOM      3  C   UNL     1     -10.155   2.450   0.000  0.00  0.00    +0.238 C 
ATOM      4  N   UNL     1      -9.822   3.912   0.000  0.00  0.00    -0.272 NA
ATOM      5  C   UNL     1      -8.470   4.563   0.000  0.00  0.00    +0.093 C 
ATOM      6  C   UNL     1      -7.119   3.912   0.000  0.00  0.00    +0.025 A 
ATOM      7  C   UNL     1      -6.019   4.932   0.000  0.00  0.00    +0.032 A 
ATOM      8  C   UNL     1      -4.586   4.490   0.000  0.00  0.00    +0.042 A 
ATOM      9  C   UNL     1      -4.252   3.028   0.000  0.00  0.00    +0.022 A 
ATOM     10  C   UNL     1      -5.351   2.007   0.000  0.00  0.00    +0.025 A 
ATOM     11 CL   UNL     1      -3.486   5.510   0.000  0.00  0.00    -0.084 Cl
ATOM     12  C   UNL     1      -6.785   2.450   0.000  0.00  0.00    +0.046 A 
ATOM     19  N   UNL     1      -7.720   1.277   0.000  0.00  0.00    -0.259 N 
ENDROOT
BRANCH   5  13
ATOM     13  C   UNL     1      -8.470   6.063   0.000  0.00  0.00    +0.089 A 
ATOM     14  C   UNL     1      -9.769   6.813   0.000  0.00  0.00    +0.030 A 
ATOM     15  C   UNL     1      -9.769   8.313   0.000  0.00  0.00    +0.004 A 
ATOM     16  C   UNL     1      -8.470   9.063   0.000  0.00  0.00    +0.020 A 
ATOM     17  C   UNL     1      -7.171   8.313   0.000  0.00  0.00    +0.111 A 
ATOM     18  N   UNL     1      -7.171   6.813   0.000  0.00  0.00    -0.253 NA
ENDBRANCH   5  13
BRANCH  19  20
ATOM     20  C   UNL     1      -7.069  -0.075   0.000  0.00  0.00    +0.234 C 
BRANCH  20  21
ATOM     21  C   UNL     1      -5.573  -0.187   0.000  0.00  0.00    +0.323 C 
ATOM     24  O   UNL     1      -4.729   1.053   0.000  0.00  0.00    -0.249 OA
BRANCH  21  22
ATOM     22  O   UNL     1      -4.923  -1.538   0.000  0.00  0.00    -0.480 OA
ATOM     23  H   UNL     1      -5.450  -2.312   0.000  0.00  0.00    +0.295 HD
ENDBRANCH  21  22
ENDBRANCH  20  21
ENDBRANCH  19  20
TORSDOF 4