REMARK  Name = 146771
REMARK  7 active torsions:
REMARK  status: ('A' for Active; 'I' for Inactive)
REMARK    1  A    between atoms: C_2  and  N_11
REMARK    2  A    between atoms: C_7  and  N_20
REMARK    3  A    between atoms: C_14  and  N_20
REMARK    4  A    between atoms: C_17  and  C_21
REMARK    5  A    between atoms: C_23  and  N_29
REMARK    6  A    between atoms: C_26  and  N_36
REMARK    7  A    between atoms: C_30  and  N_36
REMARK                            x       y       z     vdW  Elec       q    Type
REMARK                         _______ _______ _______ _____ _____    ______ ____
ROOT
ATOM     10  C   UNL     1       9.468  -1.601   0.000  0.00  0.00    +0.031 A 
ATOM     11  C   UNL     1      10.767  -0.851   0.000  0.00  0.00    +0.024 A 
ATOM     12  C   UNL     1      12.066  -1.601   0.000  0.00  0.00    +0.015 A 
ATOM     13  C   UNL     1      12.066  -3.100   0.000  0.00  0.00    +0.037 A 
ATOM     32  C   UNL     1      10.767  -3.850   0.000  0.00  0.00    +0.015 A 
ATOM     33  C   UNL     1       9.468  -3.100   0.000  0.00  0.00    +0.024 A 
ENDROOT
BRANCH  13  14
ATOM     14  C   UNL     1      13.365  -3.850   0.000  0.00  0.00    +0.248 C 
ATOM     15  N   UNL     1      14.664  -3.100   0.000  0.00  0.00    -0.282 N 
ATOM     16  H   UNL     1      14.664  -2.116   0.000  0.00  0.00    +0.155 HD
ATOM     31  O   UNL     1      13.365  -5.351   0.000  0.00  0.00    -0.270 OA
BRANCH  15  17
ATOM     17  C   UNL     1      15.964  -3.850   0.000  0.00  0.00    +0.034 A 
ATOM     18  C   UNL     1      17.262  -3.100   0.000  0.00  0.00    +0.025 A 
ATOM     19  C   UNL     1      18.561  -3.850   0.000  0.00  0.00    +0.025 A 
ATOM     20  C   UNL     1      18.561  -5.351   0.000  0.00  0.00    +0.031 A 
ATOM     29  C   UNL     1      17.262  -6.101   0.000  0.00  0.00    +0.025 A 
ATOM     30  C   UNL     1      15.964  -5.351   0.000  0.00  0.00    +0.025 A 
BRANCH  20  21
ATOM     21  N   UNL     1      19.861  -6.101   0.000  0.00  0.00    -0.314 N 
ATOM     22  H   UNL     1      19.861  -7.085   0.000  0.00  0.00    +0.152 HD
BRANCH  21  23
ATOM     23  C   UNL     1      21.160  -5.351   0.000  0.00  0.00    +0.034 A 
ATOM     24  C   UNL     1      21.160  -3.850   0.000  0.00  0.00    +0.043 A 
ATOM     25  C   UNL     1      22.459  -3.100   0.000  0.00  0.00    +0.112 A 
ATOM     26  N   UNL     1      23.758  -3.850   0.000  0.00  0.00    -0.263 NA
ATOM     27  C   UNL     1      23.758  -5.351   0.000  0.00  0.00    +0.112 A 
ATOM     28  C   UNL     1      22.459  -6.101   0.000  0.00  0.00    +0.043 A 
ENDBRANCH  21  23
ENDBRANCH  20  21
ENDBRANCH  15  17
ENDBRANCH  13  14
BRANCH  10   8
ATOM      8  N   UNL     1       8.169  -0.851   0.000  0.00  0.00    -0.314 N 
ATOM      9  H   UNL     1       7.317  -1.343   0.000  0.00  0.00    +0.152 HD
BRANCH   8   7
ATOM      1  C   UNL     1       4.272   2.900   0.000  0.00  0.00    +0.086 A 
ATOM      2  C   UNL     1       5.571   3.650   0.000  0.00  0.00    +0.035 A 
ATOM      3  C   UNL     1       6.870   2.900   0.000  0.00  0.00    +0.073 A 
ATOM      4  N   UNL     1       8.169   3.650   0.000  0.00  0.00    -0.255 NA
ATOM      5  C   UNL     1       9.468   2.900   0.000  0.00  0.00    +0.113 A 
ATOM      6  C   UNL     1       9.468   1.400   0.000  0.00  0.00    +0.043 A 
ATOM      7  C   UNL     1       8.169   0.649   0.000  0.00  0.00    +0.042 A 
ATOM     34  C   UNL     1       6.870   1.400   0.000  0.00  0.00    +0.028 A 
ATOM     35  C   UNL     1       5.571   0.649   0.000  0.00  0.00    +0.096 A 
ATOM     36  C   UNL     1       4.272   1.400   0.000  0.00  0.00    +0.274 A 
BRANCH  36  37
ATOM     37  N   UNL     1       2.973   0.649   0.000  0.00  0.00    +0.080 N 
ATOM     38  O   UNL     1       2.973  -0.851   0.000  0.00  0.00    +0.041 OA
ATOM     39  O   UNL     1       1.674   1.400   0.000  0.00  0.00    -0.576 OA
ENDBRANCH  36  37
ENDBRANCH   8   7
ENDBRANCH  10   8
TORSDOF 7