REMARK  Name = 162915
REMARK  1 active torsions:
REMARK  status: ('A' for Active; 'I' for Inactive)
REMARK    1  A    between atoms: N_2  and  C_8
REMARK                            x       y       z     vdW  Elec       q    Type
REMARK                         _______ _______ _______ _____ _____    ______ ____
ROOT
ATOM      1  N   UNL     1      -3.133  -8.427   0.000  0.00  0.00    -0.261 NA
ATOM      2  C   UNL     1      -3.133  -6.927   0.000  0.00  0.00    +0.113 A 
ATOM      3  C   UNL     1      -1.834  -6.177   0.000  0.00  0.00    +0.050 A 
ATOM      4  C   UNL     1      -0.535  -6.927   0.000  0.00  0.00    +0.098 A 
ATOM      5  C   UNL     1      -0.535  -8.427   0.000  0.00  0.00    +0.131 A 
ATOM      6  N   UNL     1       0.891  -8.890   0.000  0.00  0.00    -0.128 NA
ATOM      7  N   UNL     1       1.773  -7.677   0.000  0.00  0.00    -0.060 NA
ATOM      8  N   UNL     1       0.891  -6.463   0.000  0.00  0.00    -0.212 N 
ATOM     15  C   UNL     1      -1.834  -9.177   0.000  0.00  0.00    +0.142 A 
ENDROOT
BRANCH   8   9
ATOM      9  C   UNL     1       1.355  -5.037   0.000  0.00  0.00    +0.071 A 
ATOM     10  C   UNL     1       0.351  -3.922   0.000  0.00  0.00    +0.047 A 
ATOM     11  C   UNL     1       0.815  -2.495   0.000  0.00  0.00    +0.113 A 
ATOM     12  N   UNL     1       2.282  -2.184   0.000  0.00  0.00    -0.263 NA
ATOM     13  C   UNL     1       3.286  -3.298   0.000  0.00  0.00    +0.113 A 
ATOM     14  C   UNL     1       2.822  -4.725   0.000  0.00  0.00    +0.047 A 
ENDBRANCH   8   9
TORSDOF 1