REMARK  Name = 135351
REMARK  3 active torsions:
REMARK  status: ('A' for Active; 'I' for Inactive)
REMARK    1  A    between atoms: C_4  and  C_11
REMARK    2  A    between atoms: C_7  and  C_10
REMARK    3  A    between atoms: C_8  and  C_12
REMARK                            x       y       z     vdW  Elec       q    Type
REMARK                         _______ _______ _______ _____ _____    ______ ____
ROOT
ATOM      1  N   UNL     1      -2.620  -3.140   0.000  0.00  0.00    -0.306 N 
ATOM      2  H   UNL     1      -2.620  -1.640   0.000  0.00  0.00    +0.150 HD
ATOM      3  C   UNL     1      -1.406  -4.021   0.000  0.00  0.00    +0.217 C 
ATOM      4  C   UNL     1      -1.870  -5.448   0.000  0.00  0.00    +0.081 C 
ATOM      5  C   UNL     1      -0.988  -6.662   0.000  0.00  0.00    +0.018 C 
ATOM      6  C   UNL     1      -3.370  -5.448   0.000  0.00  0.00    +0.053 C 
ATOM      7  C   UNL     1      -4.796  -5.912   0.000  0.00  0.00    -0.068 C 
ATOM      8  C   UNL     1      -5.477  -7.248   0.000  0.00  0.00    +0.039 C 
ATOM      9  C   UNL     1      -5.260  -4.485   0.000  0.00  0.00    -0.002 C 
ATOM     10  O   UNL     1       0.020  -3.558   0.000  0.00  0.00    -0.275 OA
ATOM     11  C   UNL     1      -3.833  -4.021   0.000  0.00  0.00    +0.057 C 
ATOM     12  C   UNL     1      -4.514  -2.685   0.000  0.00  0.00    +0.037 C 
ENDROOT
TORSDOF 0