REMARK  Name = 122253
REMARK  0 active torsions:
REMARK  status: ('A' for Active; 'I' for Inactive)
REMARK                            x       y       z     vdW  Elec       q    Type
REMARK                         _______ _______ _______ _____ _____    ______ ____
ROOT
ATOM      1  O   UNL     1      -7.927  -7.500   0.000  0.00  0.00    -0.267 OA
ATOM      2  C   UNL     1      -7.927  -6.000   0.000  0.00  0.00    +0.256 A 
ATOM      3  C   UNL     1      -9.226  -5.250   0.000  0.00  0.00    +0.071 A 
ATOM      4  C   UNL     1      -9.226  -3.750   0.000  0.00  0.00    +0.011 A 
ATOM      5  C   UNL     1      -7.927  -3.000   0.000  0.00  0.00    -0.015 A 
ATOM      6  C   UNL     1      -6.628  -3.750   0.000  0.00  0.00    +0.043 A 
ATOM      7  C   UNL     1      -5.329  -3.000   0.000  0.00  0.00    +0.058 C 
ATOM      8  C   UNL     1      -3.903  -3.463   0.000  0.00  0.00    +0.038 C 
ATOM      9  C   UNL     1      -3.021  -2.250   0.000  0.00  0.00    +0.109 C 
ATOM     10  N   UNL     1      -3.903  -1.037   0.000  0.00  0.00    -0.297 N 
ATOM     11  C   UNL     1      -4.785  -2.250   0.000  0.00  0.00    +0.223 C 
ATOM     12  O   UNL     1      -5.305  -0.843   0.000  0.00  0.00    -0.275 OA
ATOM     13  C   UNL     1      -4.269  -4.061   0.000  0.00  0.00    -0.010 A 
ATOM     14  C   UNL     1      -2.769  -4.061   0.000  0.00  0.00    +0.006 A 
ATOM     15  C   UNL     1      -2.019  -5.360   0.000  0.00  0.00    +0.000 A 
ATOM     16  C   UNL     1      -2.769  -6.659   0.000  0.00  0.00    +0.002 A 
ATOM     17  C   UNL     1      -4.269  -6.659   0.000  0.00  0.00    +0.026 A 
ATOM     18  C   UNL     1      -5.019  -5.360   0.000  0.00  0.00    +0.054 A 
ATOM     19  C   UNL     1      -5.329  -1.500   0.000  0.00  0.00    +0.093 C 
ATOM     20  C   UNL     1      -6.628  -0.750   0.000  0.00  0.00    +0.041 C 
ATOM     21  C   UNL     1      -7.927  -1.500   0.000  0.00  0.00    +0.109 C 
ATOM     22  N   UNL     1      -6.628  -5.250   0.000  0.00  0.00    -0.280 N 
ENDROOT
TORSDOF 0