REMARK  Name = 109466
REMARK  7 active torsions:
REMARK  status: ('A' for Active; 'I' for Inactive)
REMARK    1  A    between atoms: C_6  and  C_11
REMARK    2  A    between atoms: C_8  and  O_12
REMARK    3  A    between atoms: C_9  and  C_13
REMARK    4  A    between atoms: C_13  and  C_14
REMARK    5  A    between atoms: C_14  and  O_16
REMARK    6  A    between atoms: O_16  and  C_17
REMARK    7  A    between atoms: C_17  and  C_18
REMARK                            x       y       z     vdW  Elec       q    Type
REMARK                         _______ _______ _______ _____ _____    ______ ____
ROOT
ATOM      1  N   UNL     1      -5.946  -0.750   0.000  0.00  0.00    -0.251 NA
ATOM      2  C   UNL     1      -7.245  -1.500   0.000  0.00  0.00    +0.075 A 
ATOM      3  C   UNL     1      -7.245  -3.000   0.000  0.00  0.00    +0.042 A 
ATOM      4  C   UNL     1      -5.946  -3.750   0.000  0.00  0.00    +0.128 A 
ATOM      7  C   UNL     1      -4.647  -3.000   0.000  0.00  0.00    +0.070 A 
ATOM      8  C   UNL     1      -8.544  -3.750   0.000  0.00  0.00    +0.017 A 
ATOM      9  C   UNL     1      -9.843  -3.000   0.000  0.00  0.00    -0.050 A 
ATOM     10  C   UNL     1     -11.142  -3.750   0.000  0.00  0.00    +0.044 C 
ATOM     11  C   UNL     1      -9.843  -1.500   0.000  0.00  0.00    +0.005 A 
ATOM     12  C   UNL     1      -8.544  -0.750   0.000  0.00  0.00    +0.029 A 
ATOM     13  C   UNL     1      -4.647  -1.500   0.000  0.00  0.00    +0.056 A 
ENDROOT
BRANCH   4   5
ATOM      5  O   UNL     1      -5.946  -5.250   0.000  0.00  0.00    -0.506 OA
ATOM      6  H   UNL     1      -6.758  -5.718   0.000  0.00  0.00    +0.292 HD
ENDBRANCH   4   5
BRANCH  13  14
ATOM     14  C   UNL     1      -3.348  -0.750   0.000  0.00  0.00    +0.176 C 
BRANCH  14  15
ATOM     15  C   UNL     1      -2.049  -1.500   0.000  0.00  0.00    +0.313 C 
ATOM     19  O   UNL     1      -0.750  -0.750   0.000  0.00  0.00    -0.250 OA
BRANCH  15  16
ATOM     16  O   UNL     1      -2.049  -3.000   0.000  0.00  0.00    -0.465 OA
BRANCH  16  17
ATOM     17  C   UNL     1      -3.348  -3.750   0.000  0.00  0.00    +0.229 C 
ATOM     18  C   UNL     1      -3.348  -5.250   0.000  0.00  0.00    +0.048 C 
ENDBRANCH  16  17
ENDBRANCH  15  16
ENDBRANCH  14  15
ENDBRANCH  13  14
TORSDOF 5