REMARK  Name = 116644
REMARK  2 active torsions:
REMARK  status: ('A' for Active; 'I' for Inactive)
REMARK    1  A    between atoms: C_12  and  C_13
REMARK    2  A    between atoms: C_16  and  C_17
REMARK                            x       y       z     vdW  Elec       q    Type
REMARK                         _______ _______ _______ _____ _____    ______ ____
ROOT
ATOM      1  N   UNL     1       3.263  -6.132   0.000  0.00  0.00    -0.353 N 
ATOM      2  H   UNL     1       4.689  -5.668   0.000  0.00  0.00    +0.166 HD
ATOM      3  C   UNL     1       2.799  -7.558   0.000  0.00  0.00    +0.047 A 
ATOM     10  C   UNL     1       1.299  -7.558   0.000  0.00  0.00    +0.028 A 
ATOM     11  C   UNL     1       0.836  -6.132   0.000  0.00  0.00    +0.030 A 
ATOM     12  C   UNL     1       2.049  -5.250   0.000  0.00  0.00    +0.066 A 
ENDROOT
BRANCH  12  13
ATOM     13  C   UNL     1       2.049  -3.750   0.000  0.00  0.00    +0.095 A 
ATOM     14  C   UNL     1       3.348  -3.000   0.000  0.00  0.00    +0.010 A 
ATOM     15  C   UNL     1       4.647  -3.750   0.000  0.00  0.00    +0.010 A 
ATOM     16  C   UNL     1       5.946  -3.000   0.000  0.00  0.00    +0.001 A 
ATOM     17  C   UNL     1       5.946  -1.500   0.000  0.00  0.00    +0.001 A 
ATOM     18  C   UNL     1       4.647  -0.750   0.000  0.00  0.00    +0.008 A 
ATOM     19  C   UNL     1       3.348  -1.500   0.000  0.00  0.00    -0.014 A 
ATOM     20  C   UNL     1       2.049  -0.750   0.000  0.00  0.00    +0.028 A 
ATOM     21  C   UNL     1       0.750  -1.500   0.000  0.00  0.00    +0.112 A 
ATOM     22  N   UNL     1       0.750  -3.000   0.000  0.00  0.00    -0.253 NA
ENDBRANCH  12  13
BRANCH   3   4
ATOM      4  C   UNL     1       3.681  -8.772   0.000  0.00  0.00    -0.002 A 
ATOM      5  C   UNL     1       3.071 -10.142   0.000  0.00  0.00    +0.010 A 
ATOM      6  C   UNL     1       3.952 -11.356   0.000  0.00  0.00    +0.001 A 
ATOM      7  C   UNL     1       5.444 -11.199   0.000  0.00  0.00    +0.000 A 
ATOM      8  C   UNL     1       6.054  -9.829   0.000  0.00  0.00    +0.001 A 
ATOM      9  C   UNL     1       5.173  -8.615   0.000  0.00  0.00    +0.010 A 
ENDBRANCH   3   4
TORSDOF 2