REMARK  Name = 148170
REMARK  2 active torsions:
REMARK  status: ('A' for Active; 'I' for Inactive)
REMARK    1  A    between atoms: C_7  and  N_8
REMARK    2  A    between atoms: S_9  and  C_10
REMARK                            x       y       z     vdW  Elec       q    Type
REMARK                         _______ _______ _______ _____ _____    ______ ____
ROOT
ATOM      6  N   UNL     1       6.750   3.390   0.000  0.00  0.00    -0.259 N 
ATOM      7  C   UNL     1       7.632   2.177   0.000  0.00  0.00    +0.220 A 
ATOM      8  N   UNL     1       7.168   0.750   0.000  0.00  0.00    -0.327 N 
ATOM      9  H   UNL     1       7.827   0.018   0.000  0.00  0.00    +0.145 HD
ATOM     10  H   UNL     1       6.205   0.545   0.000  0.00  0.00    +0.145 HD
ATOM     11  N   UNL     1       9.058   2.640   0.000  0.00  0.00    -0.112 NA
ATOM     12  N   UNL     1       9.058   4.140   0.000  0.00  0.00    -0.121 NA
ATOM     13  C   UNL     1       7.632   4.604   0.000  0.00  0.00    +0.194 A 
ENDROOT
BRANCH   6   5
ATOM      1 CL   UNL     1       0.750   3.390   0.000  0.00  0.00    -0.084 Cl
ATOM      2  C   UNL     1       2.250   3.390   0.000  0.00  0.00    +0.041 A 
ATOM      3  C   UNL     1       3.000   2.091   0.000  0.00  0.00    +0.022 A 
ATOM      4  C   UNL     1       4.500   2.091   0.000  0.00  0.00    +0.028 A 
ATOM      5  C   UNL     1       5.250   3.390   0.000  0.00  0.00    +0.052 A 
ATOM     16  C   UNL     1       4.500   4.689   0.000  0.00  0.00    +0.028 A 
ATOM     17  C   UNL     1       3.000   4.689   0.000  0.00  0.00    +0.022 A 
ENDBRANCH   6   5
BRANCH  13  14
ATOM     14  S   UNL     1       7.168   6.030   0.000  0.00  0.00    -0.103 S 
ATOM     15  H   UNL     1       8.172   7.145   0.000  0.00  0.00    +0.110 HD
ENDBRANCH  13  14
TORSDOF 2