REMARK  Name = 163910
REMARK  8 active torsions:
REMARK  status: ('A' for Active; 'I' for Inactive)
REMARK    1  A    between atoms: O_1  and  C_4
REMARK    2  A    between atoms: O_1  and  C_9
REMARK    3  A    between atoms: C_5  and  N_30
REMARK    4  A    between atoms: C_6  and  N_27
REMARK    5  A    between atoms: C_12  and  N_26
REMARK    6  A    between atoms: C_15  and  N_26
REMARK    7  A    between atoms: C_17  and  N_23
REMARK    8  A    between atoms: C_18  and  N_20
REMARK                            x       y       z     vdW  Elec       q    Type
REMARK                         _______ _______ _______ _____ _____    ______ ____
ROOT
ATOM      2  C   UNL     1       2.049  -9.750   0.000  0.00  0.00    +0.129 A 
ATOM      3  C   UNL     1       0.750  -9.000   0.000  0.00  0.00    +0.048 A 
ATOM      4  C   UNL     1       0.750  -7.500   0.000  0.00  0.00    +0.027 A 
ATOM      5  C   UNL     1       2.049  -6.750   0.000  0.00  0.00    +0.032 A 
ATOM     20  C   UNL     1       3.348  -7.500   0.000  0.00  0.00    +0.027 A 
ATOM     21  C   UNL     1       3.348  -9.000   0.000  0.00  0.00    +0.048 A 
ENDROOT
BRANCH   5   6
ATOM      6  N   UNL     1       2.049  -5.250   0.000  0.00  0.00    -0.309 N 
ATOM      7  H   UNL     1       1.196  -4.758   0.000  0.00  0.00    +0.152 HD
BRANCH   6   8
ATOM      8  C   UNL     1       3.348  -4.500   0.000  0.00  0.00    +0.110 A 
ATOM      9  C   UNL     1       3.348  -3.000   0.000  0.00  0.00    +0.300 A 
ATOM     13  C   UNL     1       4.647  -2.250   0.000  0.00  0.00    +0.170 A 
ATOM     14  C   UNL     1       5.946  -3.000   0.000  0.00  0.00    +0.280 A 
ATOM     18  C   UNL     1       5.946  -4.500   0.000  0.00  0.00    +0.086 A 
ATOM     19  C   UNL     1       4.647  -5.250   0.000  0.00  0.00    +0.037 A 
BRANCH   9  10
ATOM     10  N   UNL     1       2.049  -2.250   0.000  0.00  0.00    +0.082 N 
ATOM     11  O   UNL     1       2.049  -0.750   0.000  0.00  0.00    +0.042 OA
ATOM     12  O   UNL     1       0.750  -3.000   0.000  0.00  0.00    -0.576 OA
ENDBRANCH   9  10
BRANCH  14  15
ATOM     15  N   UNL     1       7.245  -2.250   0.000  0.00  0.00    +0.080 N 
ATOM     16  O   UNL     1       7.245  -0.750   0.000  0.00  0.00    +0.041 OA
ATOM     17  O   UNL     1       8.544  -3.000   0.000  0.00  0.00    -0.576 OA
ENDBRANCH  14  15
ENDBRANCH   6   8
ENDBRANCH   5   6
BRANCH   2   1
ATOM      1  O   UNL     1       2.049 -11.250   0.000  0.00  0.00    -0.449 OA
BRANCH   1  22
ATOM     22  C   UNL     1       3.348 -12.000   0.000  0.00  0.00    +0.205 A 
ATOM     23  C   UNL     1       3.348 -13.500   0.000  0.00  0.00    +0.321 A 
ATOM     27  C   UNL     1       4.647 -14.250   0.000  0.00  0.00    +0.172 A 
ATOM     28  C   UNL     1       5.946 -13.500   0.000  0.00  0.00    +0.280 A 
ATOM     32  C   UNL     1       5.946 -12.000   0.000  0.00  0.00    +0.088 A 
ATOM     33  C   UNL     1       4.647 -11.250   0.000  0.00  0.00    +0.060 A 
BRANCH  23  24
ATOM     24  N   UNL     1       2.049 -14.250   0.000  0.00  0.00    +0.084 N 
ATOM     25  O   UNL     1       2.049 -15.750   0.000  0.00  0.00    +0.042 OA
ATOM     26  O   UNL     1       0.750 -13.500   0.000  0.00  0.00    -0.576 OA
ENDBRANCH  23  24
BRANCH  28  29
ATOM     29  N   UNL     1       7.245 -14.250   0.000  0.00  0.00    +0.080 N 
ATOM     30  O   UNL     1       7.245 -15.750   0.000  0.00  0.00    +0.041 OA
ATOM     31  O   UNL     1       8.544 -13.500   0.000  0.00  0.00    -0.576 OA
ENDBRANCH  28  29
ENDBRANCH   1  22
ENDBRANCH   2   1
TORSDOF 8