REMARK  Name = 205912
REMARK  6 active torsions:
REMARK  status: ('A' for Active; 'I' for Inactive)
REMARK    1  A    between atoms: C_3  and  N_16
REMARK    2  A    between atoms: C_6  and  S_13
REMARK    3  A    between atoms: C_11  and  C_20
REMARK    4  A    between atoms: N_12  and  S_13
REMARK    5  A    between atoms: N_16  and  C_17
REMARK    6  A    between atoms: C_17  and  N_19
REMARK                            x       y       z     vdW  Elec       q    Type
REMARK                         _______ _______ _______ _____ _____    ______ ____
ROOT
ATOM      9  N   UNL     1      -4.222  -7.804   0.000  0.00  0.00    -0.297 N 
ATOM     10  H   UNL     1      -3.369  -8.296   0.000  0.00  0.00    +0.154 HD
ENDROOT
BRANCH   9  11
ATOM     11  C   UNL     1      -5.521  -8.554   0.000  0.00  0.00    +0.033 A 
ATOM     12  C   UNL     1      -5.521 -10.054   0.000  0.00  0.00    +0.025 A 
ATOM     13  C   UNL     1      -6.820 -10.804   0.000  0.00  0.00    +0.030 A 
ATOM     14  C   UNL     1      -8.119 -10.054   0.000  0.00  0.00    +0.105 A 
ATOM     21  C   UNL     1      -8.119  -8.554   0.000  0.00  0.00    +0.030 A 
ATOM     22  C   UNL     1      -6.820  -7.804   0.000  0.00  0.00    +0.025 A 
BRANCH  14  15
ATOM     15  S   UNL     1      -9.418 -10.804   0.000  0.00  0.00    +0.056 S 
ATOM     16  O   UNL     1      -8.668 -12.103   0.000  0.00  0.00    -0.153 OA
ATOM     17  O   UNL     1     -10.168  -9.505   0.000  0.00  0.00    -0.153 OA
BRANCH  15  18
ATOM     18  N   UNL     1     -10.717 -11.554   0.000  0.00  0.00    -0.204 NA
ATOM     19  H   UNL     1     -10.717 -12.574   0.000  0.00  0.00    +0.144 HD
ATOM     20  H   UNL     1     -11.601 -11.044   0.000  0.00  0.00    +0.144 HD
ENDBRANCH  15  18
ENDBRANCH  14  15
ENDBRANCH   9  11
BRANCH   9   7
ATOM      7  C   UNL     1      -4.222  -6.304   0.000  0.00  0.00    +0.141 C 
ATOM      8  S   UNL     1      -5.521  -5.554   0.000  0.00  0.00    -0.018 S 
BRANCH   7   5
ATOM      3  C   UNL     1      -2.923  -4.054   0.000  0.00  0.00    +0.285 C 
ATOM      4  O   UNL     1      -4.222  -3.304   0.000  0.00  0.00    -0.266 OA
ATOM      5  N   UNL     1      -2.923  -5.554   0.000  0.00  0.00    -0.261 N 
ATOM      6  H   UNL     1      -2.070  -6.046   0.000  0.00  0.00    +0.157 HD
BRANCH   3   2
ATOM      1  O   UNL     1      -1.467  -1.812   0.000  0.00  0.00    -0.458 OA
ATOM      2  C   UNL     1      -1.624  -3.304   0.000  0.00  0.00    +0.189 A 
ATOM     23  C   UNL     1      -0.254  -3.914   0.000  0.00  0.00    +0.054 A 
ATOM     24  C   UNL     1       0.750  -2.799   0.000  0.00  0.00    +0.042 A 
ATOM     25  C   UNL     1       0.000  -1.500   0.000  0.00  0.00    +0.196 A 
ENDBRANCH   3   2
ENDBRANCH   7   5
ENDBRANCH   9   7
TORSDOF 6