REMARK  Name = 120622
REMARK  8 active torsions:
REMARK  status: ('A' for Active; 'I' for Inactive)
REMARK    1  A    between atoms: O_1  and  C_11
REMARK    2  A    between atoms: O_1  and  C_19
REMARK    3  A    between atoms: O_2  and  C_5
REMARK    4  A    between atoms: O_2  and  C_20
REMARK    5  A    between atoms: C_6  and  N_21
REMARK    6  A    between atoms: C_13  and  N_18
REMARK    7  A    between atoms: C_15  and  C_17
REMARK    8  A    between atoms: C_19  and  C_20
REMARK                            x       y       z     vdW  Elec       q    Type
REMARK                         _______ _______ _______ _____ _____    ______ ____
ROOT
ATOM      1  O   UNL     1       3.037  -2.059   0.000  0.00  0.00    -0.489 OA
ENDROOT
BRANCH   1  14
ATOM     14  C   UNL     1       4.446  -1.546   0.000  0.00  0.00    +0.121 A 
ATOM     15  C   UNL     1       5.595  -2.510   0.000  0.00  0.00    +0.047 A 
ATOM     16  C   UNL     1       7.005  -1.997   0.000  0.00  0.00    +0.027 A 
ATOM     17  C   UNL     1       7.265  -0.519   0.000  0.00  0.00    +0.034 A 
ATOM     23  C   UNL     1       6.116   0.445   0.000  0.00  0.00    +0.027 A 
ATOM     24  C   UNL     1       4.707  -0.068   0.000  0.00  0.00    +0.047 A 
BRANCH  17  18
ATOM     18  N   UNL     1       8.675  -0.006   0.000  0.00  0.00    -0.286 N 
ATOM     19  H   UNL     1       9.429  -0.639   0.000  0.00  0.00    +0.155 HD
ATOM     20  C   UNL     1       8.935   1.471   0.000  0.00  0.00    +0.214 C 
ATOM     21  C   UNL     1      10.345   1.984   0.000  0.00  0.00    +0.109 C 
ATOM     22  O   UNL     1       7.786   2.435   0.000  0.00  0.00    -0.276 OA
ENDBRANCH  17  18
ENDBRANCH   1  14
BRANCH   1   2
ATOM      2  C   UNL     1       1.888  -1.094   0.000  0.00  0.00    +0.270 C 
BRANCH   2   3
ATOM      3  C   UNL     1       0.589  -1.844   0.000  0.00  0.00    +0.270 C 
BRANCH   3   4
ATOM      4  O   UNL     1       0.589  -3.344   0.000  0.00  0.00    -0.489 OA
BRANCH   4   5
ATOM      5  C   UNL     1       1.888  -4.094   0.000  0.00  0.00    +0.121 A 
ATOM      6  C   UNL     1       1.888  -5.594   0.000  0.00  0.00    +0.052 A 
ATOM      7  C   UNL     1       3.187  -6.344   0.000  0.00  0.00    +0.088 A 
ATOM      8  C   UNL     1       4.486  -5.594   0.000  0.00  0.00    +0.273 A 
ATOM     12  C   UNL     1       4.486  -4.094   0.000  0.00  0.00    +0.088 A 
ATOM     13  C   UNL     1       3.187  -3.344   0.000  0.00  0.00    +0.052 A 
BRANCH   8   9
ATOM      9  N   UNL     1       5.785  -6.344   0.000  0.00  0.00    +0.080 N 
ATOM     10  O   UNL     1       5.785  -7.844   0.000  0.00  0.00    +0.041 OA
ATOM     11  O   UNL     1       7.084  -5.594   0.000  0.00  0.00    -0.576 OA
ENDBRANCH   8   9
ENDBRANCH   4   5
ENDBRANCH   3   4
ENDBRANCH   2   3
ENDBRANCH   1   2
TORSDOF 7