REMARK  Name = 109528
REMARK  7 active torsions:
REMARK  status: ('A' for Active; 'I' for Inactive)
REMARK    1  A    between atoms: C_3  and  N_7
REMARK    2  A    between atoms: C_4  and  C_11
REMARK    3  A    between atoms: N_7  and  C_8
REMARK    4  A    between atoms: C_8  and  C_9
REMARK    5  A    between atoms: C_9  and  O_10
REMARK    6  A    between atoms: C_11  and  O_13
REMARK    7  A    between atoms: O_13  and  C_14
REMARK                            x       y       z     vdW  Elec       q    Type
REMARK                         _______ _______ _______ _____ _____    ______ ____
ROOT
ATOM      1  C   UNL     1      -7.245  -0.750   0.000  0.00  0.00    +0.024 A 
ATOM      2  C   UNL     1      -5.946  -1.500   0.000  0.00  0.00    +0.041 A 
ATOM      9  C   UNL     1      -5.946  -3.000   0.000  0.00  0.00    +0.080 A 
ATOM     14  C   UNL     1      -7.245  -3.750   0.000  0.00  0.00    +0.017 A 
ATOM     15  C   UNL     1      -8.544  -3.000   0.000  0.00  0.00    +0.001 A 
ATOM     16  C   UNL     1      -8.544  -1.500   0.000  0.00  0.00    +0.002 A 
ENDROOT
BRANCH   2   3
ATOM      3  N   UNL     1      -4.647  -0.750   0.000  0.00  0.00    -0.341 N 
ATOM      4  H   UNL     1      -4.647   0.234   0.000  0.00  0.00    +0.146 HD
BRANCH   3   5
ATOM      5  C   UNL     1      -3.348  -1.500   0.000  0.00  0.00    +0.129 C 
BRANCH   5   6
ATOM      6  C   UNL     1      -2.049  -0.750   0.000  0.00  0.00    +0.174 C 
BRANCH   6   7
ATOM      7  O   UNL     1      -0.750  -1.500   0.000  0.00  0.00    -0.393 OA
ATOM      8  H   UNL     1      -0.750  -2.470   0.000  0.00  0.00    +0.209 HD
ENDBRANCH   6   7
ENDBRANCH   5   6
ENDBRANCH   3   5
ENDBRANCH   2   3
BRANCH   9  10
ATOM     10  C   UNL     1      -4.647  -3.750   0.000  0.00  0.00    +0.341 C 
ATOM     13  O   UNL     1      -3.348  -3.000   0.000  0.00  0.00    -0.245 OA
BRANCH  10  11
ATOM     11  O   UNL     1      -4.647  -5.250   0.000  0.00  0.00    -0.464 OA
ATOM     12  C   UNL     1      -3.348  -6.000   0.000  0.00  0.00    +0.280 C 
ENDBRANCH  10  11
ENDBRANCH   9  10
TORSDOF 6