REMARK  Name = 131388
REMARK  2 active torsions:
REMARK  status: ('A' for Active; 'I' for Inactive)
REMARK    1  A    between atoms: N_6  and  C_16
REMARK    2  A    between atoms: C_10  and  N_15
REMARK                            x       y       z     vdW  Elec       q    Type
REMARK                         _______ _______ _______ _____ _____    ______ ____
ROOT
ATOM      1  N   UNL     1      -5.471  -5.524   0.000  0.00  0.00    -0.316 N 
ATOM      2  H   UNL     1      -5.471  -4.024   0.000  0.00  0.00    +0.170 HD
ATOM      3  C   UNL     1      -6.770  -6.274   0.000  0.00  0.00    +0.101 A 
ATOM      7  C   UNL     1      -6.770  -7.774   0.000  0.00  0.00    +0.113 A 
ATOM      8  C   UNL     1      -5.471  -8.524   0.000  0.00  0.00    +0.276 A 
ATOM      9  N   UNL     1      -4.172  -7.774   0.000  0.00  0.00    -0.177 NA
ATOM     10  O   UNL     1      -5.471 -10.025   0.000  0.00  0.00    -0.266 OA
ATOM     11  C   UNL     1      -4.172  -6.274   0.000  0.00  0.00    +0.200 A 
ATOM     12  N   UNL     1      -2.873  -5.524   0.000  0.00  0.00    -0.299 N 
ATOM     13  C   UNL     1      -1.573  -6.274   0.000  0.00  0.00    +0.123 C 
ATOM     14  C   UNL     1      -0.275  -5.524   0.000  0.00  0.00    +0.103 C 
ATOM     15  N   UNL     1      -0.275  -4.024   0.000  0.00  0.00    -0.302 NA
ATOM     16  C   UNL     1       1.025  -3.275   0.000  0.00  0.00    +0.105 C 
ATOM     17  C   UNL     1      -1.574  -3.275   0.000  0.00  0.00    +0.103 C 
ATOM     18  C   UNL     1      -2.873  -4.024   0.000  0.00  0.00    +0.123 C 
ENDROOT
BRANCH   3   4
ATOM      4  N   UNL     1      -8.069  -5.524   0.000  0.00  0.00    -0.344 N 
ATOM      5  H   UNL     1      -8.921  -6.017   0.000  0.00  0.00    +0.144 HD
ATOM      6  H   UNL     1      -8.069  -4.540   0.000  0.00  0.00    +0.144 HD
ENDBRANCH   3   4
TORSDOF 1