REMARK  Name = 106282
REMARK  4 active torsions:
REMARK  status: ('A' for Active; 'I' for Inactive)
REMARK    1  A    between atoms: N_1  and  C_16
REMARK    2  A    between atoms: C_7  and  C_18
REMARK    3  A    between atoms: C_8  and  C_17
REMARK    4  A    between atoms: C_11  and  C_18
REMARK                            x       y       z     vdW  Elec       q    Type
REMARK                         _______ _______ _______ _____ _____    ______ ____
ROOT
ATOM      1  N   UNL     1      -3.132   8.260   0.000  0.00  0.00    -0.346 N 
ATOM      2  C   UNL     1      -2.668   9.686   0.000  0.00  0.00    +0.149 C 
ATOM      3  C   UNL     1      -2.250   7.046   0.000  0.00  0.00    +0.027 A 
ATOM      4  C   UNL     1      -0.750   7.046   0.000  0.00  0.00    +0.064 C 
ATOM      5  C   UNL     1      -3.132   5.833   0.000  0.00  0.00    +0.050 A 
ATOM     14  C   UNL     1      -4.558   6.296   0.000  0.00  0.00    +0.011 A 
ATOM     15  C   UNL     1      -5.857   5.546   0.000  0.00  0.00    +0.011 A 
ATOM     16  C   UNL     1      -7.156   6.296   0.000  0.00  0.00    +0.001 A 
ATOM     17  C   UNL     1      -7.156   7.796   0.000  0.00  0.00    +0.002 A 
ATOM     18  C   UNL     1      -5.857   8.546   0.000  0.00  0.00    +0.026 A 
ATOM     19  C   UNL     1      -4.558   7.796   0.000  0.00  0.00    +0.050 A 
ENDROOT
BRANCH   5   6
ATOM      6  C   UNL     1      -2.668   4.406   0.000  0.00  0.00    +0.195 C 
ATOM      7  O   UNL     1      -1.201   4.094   0.000  0.00  0.00    -0.287 OA
BRANCH   6   8
ATOM      8  C   UNL     1      -3.672   3.291   0.000  0.00  0.00    +0.022 A 
ATOM      9  C   UNL     1      -5.139   3.603   0.000  0.00  0.00    +0.012 A 
ATOM     10  C   UNL     1      -6.143   2.488   0.000  0.00  0.00    +0.001 A 
ATOM     11  C   UNL     1      -5.679   1.062   0.000  0.00  0.00    +0.000 A 
ATOM     12  C   UNL     1      -4.212   0.750   0.000  0.00  0.00    +0.001 A 
ATOM     13  C   UNL     1      -3.208   1.865   0.000  0.00  0.00    +0.012 A 
ENDBRANCH   6   8
ENDBRANCH   5   6
TORSDOF 2