REMARK  Name = 144694
REMARK  3 active torsions:
REMARK  status: ('A' for Active; 'I' for Inactive)
REMARK    1  A    between atoms: C_2  and  C_8
REMARK    2  A    between atoms: C_2  and  C_19
REMARK    3  A    between atoms: C_5  and  C_18
REMARK                            x       y       z     vdW  Elec       q    Type
REMARK                         _______ _______ _______ _____ _____    ______ ____
ROOT
ATOM      5  C   UNL     1       3.348  -5.250   0.000  0.00  0.00    +0.021 C 
ATOM      6  C   UNL     1       4.647  -6.000   0.000  0.00  0.00    +0.045 C 
ENDROOT
BRANCH   6  12
ATOM     12  C   UNL     1       4.647  -7.500   0.000  0.00  0.00    -0.005 A 
ATOM     13  C   UNL     1       3.348  -8.250   0.000  0.00  0.00    -0.010 A 
ATOM     14  C   UNL     1       2.049  -7.500   0.000  0.00  0.00    +0.009 A 
ATOM     15  C   UNL     1       0.750  -8.250   0.000  0.00  0.00    +0.001 A 
ATOM     16  C   UNL     1       0.750  -9.750   0.000  0.00  0.00    +0.001 A 
ATOM     17  C   UNL     1       2.049 -10.500   0.000  0.00  0.00    +0.008 A 
ATOM     18  C   UNL     1       3.348  -9.750   0.000  0.00  0.00    -0.017 A 
ATOM     19  C   UNL     1       4.647 -10.500   0.000  0.00  0.00    +0.008 A 
ATOM     20  C   UNL     1       5.946  -9.750   0.000  0.00  0.00    +0.001 A 
ATOM     21  C   UNL     1       5.946  -8.250   0.000  0.00  0.00    +0.009 A 
ENDBRANCH   6  12
BRANCH   5   4
ATOM      1  N   UNL     1       3.348  -0.750   0.000  0.00  0.00    -0.263 NA
ATOM      2  C   UNL     1       2.049  -1.500   0.000  0.00  0.00    +0.111 A 
ATOM      3  C   UNL     1       2.049  -3.000   0.000  0.00  0.00    +0.027 A 
ATOM      4  C   UNL     1       3.348  -3.750   0.000  0.00  0.00    -0.021 A 
ATOM     22  C   UNL     1       4.647  -3.000   0.000  0.00  0.00    +0.027 A 
ATOM     23  C   UNL     1       4.647  -1.500   0.000  0.00  0.00    +0.111 A 
ENDBRANCH   5   4
BRANCH   6   7
ATOM      7  C   UNL     1       5.946  -5.250   0.000  0.00  0.00    +0.242 C 
ATOM      8  N   UNL     1       7.245  -6.000   0.000  0.00  0.00    -0.325 N 
ATOM      9  H   UNL     1       8.098  -5.508   0.000  0.00  0.00    +0.145 HD
ATOM     10  H   UNL     1       7.245  -6.984   0.000  0.00  0.00    +0.145 HD
ATOM     11  O   UNL     1       5.946  -3.750   0.000  0.00  0.00    -0.270 OA
ENDBRANCH   6   7
TORSDOF 3