REMARK  Name = 112677
REMARK  5 active torsions:
REMARK  status: ('A' for Active; 'I' for Inactive)
REMARK    1  A    between atoms: C_4  and  C_15
REMARK    2  A    between atoms: C_15  and  C_16
REMARK    3  A    between atoms: C_16  and  C_17
REMARK    4  A    between atoms: C_17  and  C_18
REMARK    5  A    between atoms: C_18  and  O_19
REMARK                            x       y       z     vdW  Elec       q    Type
REMARK                         _______ _______ _______ _____ _____    ______ ____
ROOT
ATOM      1  H   UNL     1      -2.041  -5.014   0.000  0.00  0.00    +0.166 HD
ATOM      2  N   UNL     1      -1.577  -6.440   0.000  0.00  0.00    -0.353 N 
ATOM      3  C   UNL     1      -2.459  -7.654   0.000  0.00  0.00    +0.048 A 
ATOM      4  C   UNL     1      -3.951  -7.811   0.000  0.00  0.00    +0.026 A 
ATOM      5  C   UNL     1      -4.561  -9.181   0.000  0.00  0.00    +0.002 A 
ATOM      6  C   UNL     1      -3.679 -10.395   0.000  0.00  0.00    +0.001 A 
ATOM      7  C   UNL     1      -2.188 -10.238   0.000  0.00  0.00    +0.010 A 
ATOM      8  C   UNL     1      -1.577  -8.867   0.000  0.00  0.00    +0.007 A 
ATOM      9  C   UNL     1      -0.151  -8.404   0.000  0.00  0.00    +0.011 A 
ATOM     10  C   UNL     1       1.148  -9.154   0.000  0.00  0.00    +0.030 A 
ATOM     11  C   UNL     1       2.447  -8.404   0.000  0.00  0.00    +0.112 A 
ATOM     12  N   UNL     1       2.447  -6.904   0.000  0.00  0.00    -0.258 NA
ATOM     13  C   UNL     1       1.148  -6.154   0.000  0.00  0.00    +0.065 A 
ATOM     20  C   UNL     1      -0.151  -6.904   0.000  0.00  0.00    +0.069 A 
ENDROOT
BRANCH  13  14
ATOM     14  C   UNL     1       1.148  -4.654   0.000  0.00  0.00    +0.057 C 
BRANCH  14  15
ATOM     15  C   UNL     1       2.447  -3.904   0.000  0.00  0.00    +0.008 C 
BRANCH  15  16
ATOM     16  C   UNL     1       3.746  -4.654   0.000  0.00  0.00    +0.028 C 
BRANCH  16  17
ATOM     17  C   UNL     1       5.045  -3.904   0.000  0.00  0.00    +0.156 C 
BRANCH  17  18
ATOM     18  O   UNL     1       6.344  -4.654   0.000  0.00  0.00    -0.395 OA
ATOM     19  H   UNL     1       6.344  -5.624   0.000  0.00  0.00    +0.209 HD
ENDBRANCH  17  18
ENDBRANCH  16  17
ENDBRANCH  15  16
ENDBRANCH  14  15
ENDBRANCH  13  14
TORSDOF 5