REMARK  Name = 123141
REMARK  5 active torsions:
REMARK  status: ('A' for Active; 'I' for Inactive)
REMARK    1  A    between atoms: C_8  and  C_11
REMARK    2  A    between atoms: C_11  and  C_12
REMARK    3  A    between atoms: C_12  and  O_14
REMARK    4  A    between atoms: O_14  and  C_15
REMARK    5  A    between atoms: C_15  and  C_16
REMARK                            x       y       z     vdW  Elec       q    Type
REMARK                         _______ _______ _______ _____ _____    ______ ____
ROOT
ATOM      1  S   UNL     1       0.750   2.250   0.000  0.00  0.00    -0.013 S 
ATOM      2  C   UNL     1       2.049   3.000   0.000  0.00  0.00    +0.158 A 
ATOM      3  N   UNL     1       3.348   2.250   0.000  0.00  0.00    -0.341 N 
ATOM      4  H   UNL     1       3.348   0.750   0.000  0.00  0.00    +0.167 HD
ATOM      5  C   UNL     1       4.647   3.000   0.000  0.00  0.00    +0.094 A 
ATOM      6  C   UNL     1       4.647   4.500   0.000  0.00  0.00    +0.043 A 
ATOM     13  C   UNL     1       3.348   5.250   0.000  0.00  0.00    +0.256 A 
ATOM     14  O   UNL     1       3.348   6.750   0.000  0.00  0.00    -0.267 OA
ATOM     15  N   UNL     1       2.049   4.500   0.000  0.00  0.00    -0.303 N 
ATOM     16  H   UNL     1       0.750   5.250   0.000  0.00  0.00    +0.171 HD
ENDROOT
BRANCH   6   7
ATOM      7  C   UNL     1       5.946   5.250   0.000  0.00  0.00    +0.162 C 
BRANCH   7   8
ATOM      8  C   UNL     1       7.245   4.500   0.000  0.00  0.00    +0.312 C 
ATOM     12  O   UNL     1       8.544   5.250   0.000  0.00  0.00    -0.250 OA
BRANCH   8   9
ATOM      9  O   UNL     1       7.245   3.000   0.000  0.00  0.00    -0.465 OA
BRANCH   9  10
ATOM     10  C   UNL     1       8.544   2.250   0.000  0.00  0.00    +0.229 C 
ATOM     11  C   UNL     1       8.544   0.750   0.000  0.00  0.00    +0.048 C 
ENDBRANCH   9  10
ENDBRANCH   8   9
ENDBRANCH   7   8
ENDBRANCH   6   7
TORSDOF 4