REMARK  Name = 108972
REMARK  2 active torsions:
REMARK  status: ('A' for Active; 'I' for Inactive)
REMARK    1  A    between atoms: C_6  and  C_12
REMARK    2  A    between atoms: C_7  and  C_13
REMARK                            x       y       z     vdW  Elec       q    Type
REMARK                         _______ _______ _______ _____ _____    ______ ____
ROOT
ATOM      1  C   UNL     1      -6.607  -1.890   0.000  0.00  0.00    +0.028 A 
ATOM      2  C   UNL     1      -5.308  -2.640   0.000  0.00  0.00    +0.101 A 
ATOM      3  S   UNL     1      -3.882  -2.177   0.000  0.00  0.00    +0.031 S 
ATOM      4  O   UNL     1      -3.418  -0.750   0.000  0.00  0.00    -0.164 OA
ATOM      5  O   UNL     1      -4.345  -3.603   0.000  0.00  0.00    -0.164 OA
ATOM      6  C   UNL     1      -3.000  -3.390   0.000  0.00  0.00    +0.158 C 
ATOM     12  C   UNL     1      -3.882  -4.604   0.000  0.00  0.00    -0.011 C 
ATOM     13  C   UNL     1      -3.418  -6.030   0.000  0.00  0.00    +0.046 C 
ATOM     14  C   UNL     1      -5.308  -4.140   0.000  0.00  0.00    +0.005 A 
ATOM     15  C   UNL     1      -6.607  -4.890   0.000  0.00  0.00    +0.010 A 
ATOM     16  C   UNL     1      -7.906  -4.140   0.000  0.00  0.00    +0.001 A 
ATOM     17  C   UNL     1      -7.906  -2.640   0.000  0.00  0.00    +0.002 A 
ENDROOT
BRANCH   6   7
ATOM      7  C   UNL     1      -1.500  -3.390   0.000  0.00  0.00    +0.260 C 
ATOM      8  N   UNL     1      -0.750  -2.091   0.000  0.00  0.00    -0.324 N 
ATOM      9  H   UNL     1      -1.242  -1.238   0.000  0.00  0.00    +0.145 HD
ATOM     10  H   UNL     1       0.234  -2.091   0.000  0.00  0.00    +0.145 HD
ATOM     11  O   UNL     1      -0.750  -4.689   0.000  0.00  0.00    -0.269 OA
ENDBRANCH   6   7
TORSDOF 1