REMARK  Name = 106231
REMARK  9 active torsions:
REMARK  status: ('A' for Active; 'I' for Inactive)
REMARK    1  A    between atoms: N_1  and  C_19
REMARK    2  A    between atoms: N_2  and  C_27
REMARK    3  A    between atoms: C_9  and  C_21
REMARK    4  A    between atoms: C_10  and  C_26
REMARK    5  A    between atoms: C_16  and  C_21
REMARK    6  A    between atoms: C_17  and  C_20
REMARK    7  A    between atoms: C_21  and  C_22
REMARK    8  A    between atoms: C_21  and  C_23
REMARK    9  A    between atoms: C_23  and  O_25
REMARK                            x       y       z     vdW  Elec       q    Type
REMARK                         _______ _______ _______ _____ _____    ______ ____
ROOT
ATOM      6  C   UNL     1      -1.243  -6.957   0.000  0.00  0.00    +0.119 C 
ATOM     11  C   UNL     1      -2.124  -5.743   0.000  0.00  0.00    +0.033 C 
ENDROOT
BRANCH   6   5
ATOM      1  N   UNL     1      -4.765  -8.588   0.000  0.00  0.00    -0.347 N 
ATOM      2  C   UNL     1      -6.265  -8.588   0.000  0.00  0.00    +0.149 C 
ATOM      3  C   UNL     1      -3.883  -7.375   0.000  0.00  0.00    +0.021 A 
ATOM      4  C   UNL     1      -4.346  -5.948   0.000  0.00  0.00    +0.064 C 
ATOM      5  C   UNL     1      -2.456  -7.838   0.000  0.00  0.00    +0.002 A 
ATOM     23  C   UNL     1      -2.456  -9.338   0.000  0.00  0.00    +0.005 A 
ATOM     24  C   UNL     1      -1.342 -10.342   0.000  0.00  0.00    +0.010 A 
ATOM     25  C   UNL     1      -1.654 -11.809   0.000  0.00  0.00    +0.001 A 
ATOM     26  C   UNL     1      -3.080 -12.273   0.000  0.00  0.00    +0.002 A 
ATOM     27  C   UNL     1      -4.195 -11.269   0.000  0.00  0.00    +0.026 A 
ATOM     28  C   UNL     1      -3.883  -9.802   0.000  0.00  0.00    +0.049 A 
ENDBRANCH   6   5
BRANCH   6  12
ATOM     12  C   UNL     1      -0.029  -6.075   0.000  0.00  0.00    +0.002 A 
ATOM     13  C   UNL     1      -0.029  -4.575   0.000  0.00  0.00    +0.021 A 
ATOM     14  C   UNL     1      -1.243  -3.693   0.000  0.00  0.00    +0.064 C 
ATOM     15  N   UNL     1       1.397  -4.111   0.000  0.00  0.00    -0.347 N 
ATOM     16  C   UNL     1       1.861  -2.685   0.000  0.00  0.00    +0.149 C 
ATOM     17  C   UNL     1       2.279  -5.325   0.000  0.00  0.00    +0.049 A 
ATOM     18  C   UNL     1       3.771  -5.482   0.000  0.00  0.00    +0.026 A 
ATOM     19  C   UNL     1       4.381  -6.852   0.000  0.00  0.00    +0.002 A 
ATOM     20  C   UNL     1       3.499  -8.065   0.000  0.00  0.00    +0.001 A 
ATOM     21  C   UNL     1       2.007  -7.909   0.000  0.00  0.00    +0.010 A 
ATOM     22  C   UNL     1       1.397  -6.538   0.000  0.00  0.00    +0.005 A 
ENDBRANCH   6  12
BRANCH   6   7
ATOM      7  C   UNL     1      -0.361  -8.170   0.000  0.00  0.00    +0.320 C 
ATOM     10  O   UNL     1      -0.971  -9.540   0.000  0.00  0.00    -0.250 OA
BRANCH   7   8
ATOM      8  O   UNL     1       1.131  -8.013   0.000  0.00  0.00    -0.480 OA
ATOM      9  H   UNL     1       1.681  -8.771   0.000  0.00  0.00    +0.295 HD
ENDBRANCH   7   8
ENDBRANCH   6   7
TORSDOF 4