REMARK  Name = 106506
REMARK  2 active torsions:
REMARK  status: ('A' for Active; 'I' for Inactive)
REMARK    1  A    between atoms: C_4  and  C_15
REMARK    2  A    between atoms: C_15  and  C_16
REMARK                            x       y       z     vdW  Elec       q    Type
REMARK                         _______ _______ _______ _____ _____    ______ ____
ROOT
ATOM      1  H   UNL     1      -8.369  -2.546   0.000  0.00  0.00    +0.166 HD
ATOM      2  N   UNL     1      -7.905  -3.972   0.000  0.00  0.00    -0.354 N 
ATOM      3  C   UNL     1      -8.787  -5.186   0.000  0.00  0.00    +0.047 A 
ATOM      4  C   UNL     1     -10.279  -5.343   0.000  0.00  0.00    +0.026 A 
ATOM      5  C   UNL     1     -10.889  -6.713   0.000  0.00  0.00    +0.002 A 
ATOM      6  C   UNL     1     -10.007  -7.926   0.000  0.00  0.00    +0.001 A 
ATOM      7  C   UNL     1      -8.515  -7.769   0.000  0.00  0.00    +0.010 A 
ATOM      8  C   UNL     1      -7.905  -6.399   0.000  0.00  0.00    +0.007 A 
ATOM      9  C   UNL     1      -6.479  -5.936   0.000  0.00  0.00    +0.007 A 
ATOM     10  C   UNL     1      -5.180  -6.686   0.000  0.00  0.00    +0.011 A 
ATOM     11  C   UNL     1      -3.880  -5.936   0.000  0.00  0.00    +0.005 A 
ATOM     12  C   UNL     1      -3.881  -4.436   0.000  0.00  0.00    -0.037 A 
ATOM     19  C   UNL     1      -5.180  -3.686   0.000  0.00  0.00    +0.030 A 
ATOM     20  C   UNL     1      -6.479  -4.436   0.000  0.00  0.00    +0.048 A 
ENDROOT
BRANCH  12  13
ATOM     13  C   UNL     1      -2.581  -3.686   0.000  0.00  0.00    +0.130 C 
BRANCH  13  14
ATOM     14  C   UNL     1      -1.282  -4.436   0.000  0.00  0.00    +0.215 C 
ATOM     15  N   UNL     1      -1.282  -5.936   0.000  0.00  0.00    -0.329 N 
ATOM     16  H   UNL     1      -0.430  -6.428   0.000  0.00  0.00    +0.145 HD
ATOM     17  H   UNL     1      -2.135  -6.428   0.000  0.00  0.00    +0.145 HD
ATOM     18  O   UNL     1       0.017  -3.686   0.000  0.00  0.00    -0.276 OA
ENDBRANCH  13  14
ENDBRANCH  12  13
TORSDOF 2