REMARK  Name = 13248
REMARK  4 active torsions:
REMARK  status: ('A' for Active; 'I' for Inactive)
REMARK    1  A    between atoms: N_3  and  C_19
REMARK    2  A    between atoms: C_9  and  N_18
REMARK    3  A    between atoms: C_13  and  N_18
REMARK    4  A    between atoms: C_19  and  C_20
REMARK                            x       y       z     vdW  Elec       q    Type
REMARK                         _______ _______ _______ _____ _____    ______ ____
ROOT
ATOM      1 CL   UNL     1     -14.015   4.226   0.000  0.00  0.00    -0.083 Cl
ATOM      2  C   UNL     1     -12.716   3.475   0.000  0.00  0.00    +0.043 A 
ATOM      3  C   UNL     1     -12.716   1.976   0.000  0.00  0.00    +0.021 A 
ATOM      4  C   UNL     1     -11.417   1.226   0.000  0.00  0.00    +0.013 A 
ATOM      5  C   UNL     1     -10.118   1.976   0.000  0.00  0.00    +0.021 A 
ATOM      6  C   UNL     1      -8.819   1.226   0.000  0.00  0.00    +0.038 A 
ATOM     17  C   UNL     1      -7.520   1.976   0.000  0.00  0.00    +0.043 A 
ATOM     18  C   UNL     1      -7.520   3.475   0.000  0.00  0.00    +0.113 A 
ATOM     19  N   UNL     1      -8.819   4.226   0.000  0.00  0.00    -0.255 NA
ATOM     20  C   UNL     1     -10.118   3.475   0.000  0.00  0.00    +0.074 A 
ATOM     21  C   UNL     1     -11.417   4.226   0.000  0.00  0.00    +0.048 A 
ENDROOT
BRANCH   6   7
ATOM      7  N   UNL     1      -8.819  -0.275   0.000  0.00  0.00    -0.340 N 
ATOM      8  H   UNL     1      -9.671  -0.767   0.000  0.00  0.00    +0.146 HD
BRANCH   7   9
ATOM      9  C   UNL     1      -7.520  -1.025   0.000  0.00  0.00    +0.073 C 
ATOM     10  C   UNL     1      -7.520  -2.525   0.000  0.00  0.00    +0.037 C 
ATOM     11  C   UNL     1      -6.221  -3.275   0.000  0.00  0.00    +0.086 C 
ATOM     12  N   UNL     1      -4.922  -2.525   0.000  0.00  0.00    -0.302 NA
ATOM     15  C   UNL     1      -4.922  -1.025   0.000  0.00  0.00    +0.086 C 
ATOM     16  C   UNL     1      -6.221  -0.275   0.000  0.00  0.00    +0.037 C 
BRANCH  12  13
ATOM     13  C   UNL     1      -3.623  -3.275   0.000  0.00  0.00    +0.081 C 
ATOM     14  C   UNL     1      -3.623  -4.774   0.000  0.00  0.00    +0.020 C 
ENDBRANCH  12  13
ENDBRANCH   7   9
ENDBRANCH   6   7
TORSDOF 3