REMARK  Name = 149054
REMARK  3 active torsions:
REMARK  status: ('A' for Active; 'I' for Inactive)
REMARK    1  A    between atoms: N_2  and  C_15
REMARK    2  A    between atoms: N_4  and  C_9
REMARK    3  A    between atoms: C_22  and  N_23
REMARK                            x       y       z     vdW  Elec       q    Type
REMARK                         _______ _______ _______ _____ _____    ______ ____
ROOT
ATOM      1  O   UNL     1       3.348   3.000   0.000  0.00  0.00    -0.269 OA
ATOM      2  C   UNL     1       4.647   3.750   0.000  0.00  0.00    +0.265 C 
ATOM      3  C   UNL     1       5.946   3.000   0.000  0.00  0.00    +0.113 C 
ATOM      4  C   UNL     1       5.946   1.500   0.000  0.00  0.00    +0.083 C 
ATOM      8  C   UNL     1       7.245   3.750   0.000  0.00  0.00    +0.265 C 
ATOM      9  O   UNL     1       8.544   3.000   0.000  0.00  0.00    -0.269 OA
ATOM     10  N   UNL     1       7.245   5.250   0.000  0.00  0.00    -0.189 N 
ATOM     17  C   UNL     1       5.946   6.000   0.000  0.00  0.00    +0.327 C 
ATOM     18  O   UNL     1       5.946   7.500   0.000  0.00  0.00    -0.251 OA
ATOM     19  N   UNL     1       4.647   5.250   0.000  0.00  0.00    -0.189 N 
ENDROOT
BRANCH  10  11
ATOM     11  C   UNL     1       8.544   6.000   0.000  0.00  0.00    +0.046 A 
ATOM     12  C   UNL     1       9.843   5.250   0.000  0.00  0.00    +0.024 A 
ATOM     13  C   UNL     1      11.142   6.000   0.000  0.00  0.00    +0.002 A 
ATOM     14  C   UNL     1      11.142   7.500   0.000  0.00  0.00    +0.000 A 
ATOM     15  C   UNL     1       9.843   8.250   0.000  0.00  0.00    +0.002 A 
ATOM     16  C   UNL     1       8.544   7.500   0.000  0.00  0.00    +0.024 A 
ENDBRANCH  10  11
BRANCH  19  20
ATOM     20  C   UNL     1       3.348   6.000   0.000  0.00  0.00    +0.046 A 
ATOM     21  C   UNL     1       2.049   5.250   0.000  0.00  0.00    +0.024 A 
ATOM     22  C   UNL     1       0.750   6.000   0.000  0.00  0.00    +0.002 A 
ATOM     23  C   UNL     1       0.750   7.500   0.000  0.00  0.00    +0.000 A 
ATOM     24  C   UNL     1       2.049   8.250   0.000  0.00  0.00    +0.002 A 
ATOM     25  C   UNL     1       3.348   7.500   0.000  0.00  0.00    +0.024 A 
ENDBRANCH  19  20
BRANCH   4   5
ATOM      5  N   UNL     1       4.647   0.750   0.000  0.00  0.00    -0.363 N 
ATOM      6  H   UNL     1       4.647  -0.234   0.000  0.00  0.00    +0.142 HD
ATOM      7  H   UNL     1       3.795   1.242   0.000  0.00  0.00    +0.142 HD
ENDBRANCH   4   5
TORSDOF 3