REMARK  Name = 118818
REMARK  4 active torsions:
REMARK  status: ('A' for Active; 'I' for Inactive)
REMARK    1  A    between atoms: N_1  and  C_26
REMARK    2  A    between atoms: N_3  and  C_16
REMARK    3  A    between atoms: C_11  and  C_27
REMARK    4  A    between atoms: C_21  and  C_26
REMARK                            x       y       z     vdW  Elec       q    Type
REMARK                         _______ _______ _______ _____ _____    ______ ____
ROOT
ATOM      1  N   UNL     1       4.511   5.421   0.000  0.00  0.00    -0.289 NA
ATOM      9  C   UNL     1       4.980   6.658   0.000  0.00  0.00    +0.110 C 
ATOM     10  C   UNL     1       3.590   5.869   0.000  0.00  0.00    +0.044 C 
ATOM     13  C   UNL     1       3.590   4.282   0.000  0.00  0.00    -0.006 C 
ATOM     14  C   UNL     1       4.980   3.493   0.000  0.00  0.00    +0.039 C 
ATOM     15  C   UNL     1       6.341   4.282   0.000  0.00  0.00    +0.098 C 
ATOM     16  C   UNL     1       7.852   3.787   0.000  0.00  0.00    +0.231 C 
ATOM     17  N   UNL     1       8.765   5.080   0.000  0.00  0.00    -0.210 N 
ATOM     24  C   UNL     1       7.852   6.351   0.000  0.00  0.00    +0.232 C 
ATOM     25  O   UNL     1       8.323   7.775   0.000  0.00  0.00    -0.274 OA
ATOM     26  O   UNL     1       8.323   2.363   0.000  0.00  0.00    -0.274 OA
ATOM     27  C   UNL     1       6.341   5.869   0.000  0.00  0.00    +0.110 C 
ATOM     28  C   UNL     1       5.317   4.696   0.000  0.00  0.00    +0.093 C 
ENDROOT
BRANCH  17  18
ATOM     18  C   UNL     1      10.265   5.086   0.000  0.00  0.00    +0.044 A 
ATOM     19  C   UNL     1      11.020   3.790   0.000  0.00  0.00    +0.024 A 
ATOM     20  C   UNL     1      12.520   3.796   0.000  0.00  0.00    +0.002 A 
ATOM     21  C   UNL     1      13.265   5.098   0.000  0.00  0.00    +0.000 A 
ATOM     22  C   UNL     1      12.510   6.394   0.000  0.00  0.00    +0.002 A 
ATOM     23  C   UNL     1      11.010   6.388   0.000  0.00  0.00    +0.024 A 
ENDBRANCH  17  18
BRANCH  10  11
ATOM     11  C   UNL     1       2.293   6.624   0.000  0.00  0.00    +0.096 C 
ATOM     12  N   UNL     1       0.997   7.379   0.000  0.00  0.00    -0.191 NA
ENDBRANCH  10  11
BRANCH   1   2
ATOM      2  C   UNL     1       2.244   4.429   0.000  0.00  0.00    +0.120 C 
BRANCH   2   3
ATOM      3  C   UNL     1       2.077   2.938   0.000  0.00  0.00    -0.033 A 
ATOM      4  C   UNL     1       0.703   2.337   0.000  0.00  0.00    +0.005 A 
ATOM      5  C   UNL     1       0.536   0.846   0.000  0.00  0.00    +0.000 A 
ATOM      6  C   UNL     1       1.744  -0.043   0.000  0.00  0.00    +0.000 A 
ATOM      7  C   UNL     1       3.119   0.558   0.000  0.00  0.00    +0.000 A 
ATOM      8  C   UNL     1       3.285   2.049   0.000  0.00  0.00    +0.005 A 
ENDBRANCH   2   3
ENDBRANCH   1   2
TORSDOF 4