REMARK  Name = 20618
REMARK  4 active torsions:
REMARK  status: ('A' for Active; 'I' for Inactive)
REMARK    1  A    between atoms: C_1  and  C_18
REMARK    2  A    between atoms: C_4  and  C_15
REMARK    3  A    between atoms: C_12  and  N_16
REMARK    4  A    between atoms: C_12  and  N_17
REMARK                            x       y       z     vdW  Elec       q    Type
REMARK                         _______ _______ _______ _____ _____    ______ ____
ROOT
ATOM      9  C   UNL     1       0.924  -7.399   0.000  0.00  0.00    +0.141 C 
ATOM     19  S   UNL     1      -0.375  -6.649   0.000  0.00  0.00    -0.018 S 
ENDROOT
BRANCH   9   7
ATOM      1  C   UNL     1       0.924  -2.900   0.000  0.00  0.00    +0.040 A 
ATOM      2  C   UNL     1      -0.375  -2.150   0.000  0.00  0.00    +0.065 C 
ATOM      3  C   UNL     1       2.223  -2.150   0.000  0.00  0.00    +0.023 A 
ATOM      4  C   UNL     1       3.522  -2.900   0.000  0.00  0.00    +0.005 A 
ATOM      5  C   UNL     1       3.522  -4.399   0.000  0.00  0.00    +0.044 A 
ATOM      6  C   UNL     1       2.223  -5.149   0.000  0.00  0.00    +0.124 A 
ATOM      7  N   UNL     1       2.223  -6.649   0.000  0.00  0.00    -0.282 N 
ATOM      8  H   UNL     1       3.076  -7.142   0.000  0.00  0.00    +0.155 HD
ATOM     20  N   UNL     1       0.924  -4.399   0.000  0.00  0.00    -0.237 NA
ENDBRANCH   9   7
BRANCH   9  10
ATOM     10  N   UNL     1       0.924  -8.899   0.000  0.00  0.00    -0.282 N 
ATOM     11  H   UNL     1       1.777  -9.392   0.000  0.00  0.00    +0.155 HD
ATOM     12  C   UNL     1      -0.375  -9.649   0.000  0.00  0.00    +0.124 A 
ATOM     13  C   UNL     1      -0.375 -11.150   0.000  0.00  0.00    +0.044 A 
ATOM     14  C   UNL     1      -1.674 -11.900   0.000  0.00  0.00    +0.005 A 
ATOM     15  C   UNL     1      -2.973 -11.150   0.000  0.00  0.00    +0.023 A 
ATOM     16  C   UNL     1      -2.973  -9.649   0.000  0.00  0.00    +0.040 A 
ATOM     17  C   UNL     1      -4.272  -8.899   0.000  0.00  0.00    +0.065 C 
ATOM     18  N   UNL     1      -1.674  -8.899   0.000  0.00  0.00    -0.237 NA
ENDBRANCH   9  10
TORSDOF 2