REMARK  Name = 128751
REMARK  1 active torsions:
REMARK  status: ('A' for Active; 'I' for Inactive)
REMARK    1  A    between atoms: C_10  and  C_11
REMARK                            x       y       z     vdW  Elec       q    Type
REMARK                         _______ _______ _______ _____ _____    ______ ____
ROOT
ATOM      1  C   UNL     1       0.750   4.140   0.000  0.00  0.00    +0.002 A 
ATOM      2  C   UNL     1       0.750   2.640   0.000  0.00  0.00    +0.002 A 
ATOM      3  C   UNL     1       2.049   1.890   0.000  0.00  0.00    +0.028 A 
ATOM      4  C   UNL     1       3.348   2.640   0.000  0.00  0.00    +0.066 A 
ATOM      5  N   UNL     1       4.775   2.177   0.000  0.00  0.00    -0.338 N 
ATOM      6  H   UNL     1       5.238   0.750   0.000  0.00  0.00    +0.167 HD
ATOM      7  C   UNL     1       5.656   3.390   0.000  0.00  0.00    +0.141 A 
ATOM     15  N   UNL     1       4.775   4.604   0.000  0.00  0.00    -0.228 NA
ATOM     16  C   UNL     1       3.348   4.140   0.000  0.00  0.00    +0.089 A 
ATOM     17  C   UNL     1       2.049   4.890   0.000  0.00  0.00    +0.030 A 
ENDROOT
BRANCH   7   8
ATOM      8  C   UNL     1       7.156   3.390   0.000  0.00  0.00    +0.036 A 
ATOM      9  C   UNL     1       7.906   2.091   0.000  0.00  0.00    +0.013 A 
ATOM     10  C   UNL     1       9.406   2.091   0.000  0.00  0.00    +0.001 A 
ATOM     11  C   UNL     1      10.156   3.390   0.000  0.00  0.00    +0.001 A 
ATOM     12  C   UNL     1       9.406   4.689   0.000  0.00  0.00    +0.021 A 
ATOM     13  C   UNL     1       7.906   4.689   0.000  0.00  0.00    +0.052 A 
ATOM     14 CL   UNL     1       7.156   5.988   0.000  0.00  0.00    -0.083 Cl
ENDBRANCH   7   8
TORSDOF 1