REMARK  Name = 126405
REMARK  1 active torsions:
REMARK  status: ('A' for Active; 'I' for Inactive)
REMARK    1  A    between atoms: N_10  and  N_11
REMARK                            x       y       z     vdW  Elec       q    Type
REMARK                         _______ _______ _______ _____ _____    ______ ____
ROOT
ATOM      1 CL   UNL     1      -8.132  -0.922   0.000  0.00  0.00    -0.080 Cl
ATOM      2  C   UNL     1      -6.706  -1.386   0.000  0.00  0.00    +0.081 C 
ATOM      3  C   UNL     1      -6.242  -2.812   0.000  0.00  0.00    +0.081 C 
ATOM      4  C   UNL     1      -4.742  -2.812   0.000  0.00  0.00    +0.089 C 
ATOM      5  C   UNL     1      -4.279  -1.386   0.000  0.00  0.00    +0.121 C 
ATOM      6  N   UNL     1      -2.852  -0.922   0.000  0.00  0.00    -0.187 NA
ATOM     10 CL   UNL     1      -3.860  -4.026   0.000  0.00  0.00    -0.080 Cl
ATOM     11 CL   UNL     1      -7.124  -4.026   0.000  0.00  0.00    -0.080 Cl
ATOM     12  C   UNL     1      -5.492  -0.504   0.000  0.00  0.00    +0.089 C 
ATOM     13 CL   UNL     1      -5.492   0.996   0.000  0.00  0.00    -0.080 Cl
ENDROOT
BRANCH   6   7
ATOM      7  N   UNL     1      -1.737  -1.926   0.000  0.00  0.00    -0.282 N 
ATOM      8  H   UNL     1      -0.801  -1.622   0.000  0.00  0.00    +0.164 HD
ATOM      9  H   UNL     1      -1.942  -2.889   0.000  0.00  0.00    +0.164 HD
ENDBRANCH   6   7
TORSDOF 1