REMARK  Name = 15372
REMARK  3 active torsions:
REMARK  status: ('A' for Active; 'I' for Inactive)
REMARK    1  A    between atoms: C_3  and  N_17
REMARK    2  A    between atoms: C_4  and  O_18
REMARK    3  A    between atoms: C_9  and  N_17
REMARK                            x       y       z     vdW  Elec       q    Type
REMARK                         _______ _______ _______ _____ _____    ______ ____
ROOT
ATOM      3  N   UNL     1       2.223  -8.149   0.000  0.00  0.00    -0.314 N 
ATOM      4  H   UNL     1       3.076  -8.642   0.000  0.00  0.00    +0.152 HD
ENDROOT
BRANCH   3   5
ATOM      5  C   UNL     1       0.924  -8.899   0.000  0.00  0.00    +0.032 A 
ATOM      6  C   UNL     1       0.924 -10.400   0.000  0.00  0.00    +0.024 A 
ATOM      7  C   UNL     1      -0.375 -11.150   0.000  0.00  0.00    +0.010 A 
ATOM      8  C   UNL     1      -1.674 -10.400   0.000  0.00  0.00    -0.018 A 
ATOM      9  C   UNL     1      -2.973 -11.150   0.000  0.00  0.00    +0.008 A 
ATOM     10  C   UNL     1      -4.272 -10.400   0.000  0.00  0.00    +0.001 A 
ATOM     11  C   UNL     1      -4.272  -8.899   0.000  0.00  0.00    +0.001 A 
ATOM     12  C   UNL     1      -2.973  -8.149   0.000  0.00  0.00    +0.008 A 
ATOM     13  C   UNL     1      -1.674  -8.899   0.000  0.00  0.00    -0.016 A 
ATOM     14  C   UNL     1      -0.375  -8.149   0.000  0.00  0.00    +0.031 A 
ENDBRANCH   3   5
BRANCH   3   2
ATOM      1  C   UNL     1       0.924  -5.899   0.000  0.00  0.00    +0.027 A 
ATOM      2  C   UNL     1       2.223  -6.649   0.000  0.00  0.00    +0.032 A 
ATOM     15  C   UNL     1       3.522  -5.899   0.000  0.00  0.00    +0.027 A 
ATOM     16  C   UNL     1       3.522  -4.399   0.000  0.00  0.00    +0.047 A 
ATOM     17  C   UNL     1       2.223  -3.650   0.000  0.00  0.00    +0.117 A 
ATOM     20  C   UNL     1       0.924  -4.399   0.000  0.00  0.00    +0.047 A 
BRANCH  17  18
ATOM     18  O   UNL     1       2.223  -2.150   0.000  0.00  0.00    -0.507 OA
ATOM     19  H   UNL     1       3.035  -1.681   0.000  0.00  0.00    +0.292 HD
ENDBRANCH  17  18
ENDBRANCH   3   2
TORSDOF 3