REMARK  Name = 170621
REMARK  3 active torsions:
REMARK  status: ('A' for Active; 'I' for Inactive)
REMARK    1  A    between atoms: C_3  and  C_14
REMARK    2  A    between atoms: N_12  and  C_13
REMARK    3  A    between atoms: C_13  and  C_14
REMARK                            x       y       z     vdW  Elec       q    Type
REMARK                         _______ _______ _______ _____ _____    ______ ____
ROOT
ATOM      1  O   UNL     1      -2.973   3.650   0.000  0.00  0.00    -0.619 OA
ATOM      2  N   UNL     1      -2.973   2.150   0.000  0.00  0.00    -0.170 N 
ATOM      3  C   UNL     1      -4.272   1.400   0.000  0.00  0.00    +0.237 A 
ATOM      4  C   UNL     1      -4.272  -0.101   0.000  0.00  0.00    +0.048 A 
ATOM      5  C   UNL     1      -5.571  -0.851   0.000  0.00  0.00    +0.014 A 
ATOM      6  C   UNL     1      -6.870  -0.101   0.000  0.00  0.00    +0.002 A 
ATOM      7  C   UNL     1      -6.870   1.400   0.000  0.00  0.00    +0.018 A 
ATOM      8  C   UNL     1      -2.973  -0.851   0.000  0.00  0.00    +0.020 A 
ATOM      9  C   UNL     1      -1.674  -0.101   0.000  0.00  0.00    +0.072 A 
ATOM     10  C   UNL     1      -5.571   2.150   0.000  0.00  0.00    +0.092 A 
ATOM     17  C   UNL     1      -1.674   1.400   0.000  0.00  0.00    +0.322 A 
ENDROOT
BRANCH  10  11
ATOM     11  C   UNL     1      -5.571   3.650   0.000  0.00  0.00    +0.183 C 
ATOM     12  O   UNL     1      -4.272   4.399   0.000  0.00  0.00    -0.290 OA
BRANCH  11  13
ATOM     13  C   UNL     1      -6.870   4.399   0.000  0.00  0.00    +0.158 C 
BRANCH  13  14
ATOM     14  N   UNL     1      -6.870   5.899   0.000  0.00  0.00    -0.324 NA
ATOM     15  H   UNL     1      -7.754   6.409   0.000  0.00  0.00    +0.119 HD
ATOM     16  H   UNL     1      -5.987   6.409   0.000  0.00  0.00    +0.119 HD
ENDBRANCH  13  14
ENDBRANCH  11  13
ENDBRANCH  10  11
TORSDOF 3