REMARK  Name = 163158
REMARK  3 active torsions:
REMARK  status: ('A' for Active; 'I' for Inactive)
REMARK    1  A    between atoms: C_1  and  C_11
REMARK    2  A    between atoms: C_4  and  O_12
REMARK    3  A    between atoms: C_10  and  O_13
REMARK                            x       y       z     vdW  Elec       q    Type
REMARK                         _______ _______ _______ _____ _____    ______ ____
ROOT
ATOM      1  C   UNL     1       2.978   4.500   0.000  0.00  0.00    +0.044 A 
ATOM      2  C   UNL     1       1.679   5.250   0.000  0.00  0.00    +0.066 C 
ATOM      3  C   UNL     1       2.978   3.000   0.000  0.00  0.00    +0.069 A 
ATOM      4  C   UNL     1       4.277   2.250   0.000  0.00  0.00    +0.134 A 
ATOM      7  C   UNL     1       5.576   3.000   0.000  0.00  0.00    +0.123 A 
ATOM      8  C   UNL     1       7.003   2.537   0.000  0.00  0.00    +0.244 A 
ATOM     11  N   UNL     1       7.884   3.750   0.000  0.00  0.00    -0.134 NA
ATOM     12  N   UNL     1       7.003   4.963   0.000  0.00  0.00    -0.257 N 
ATOM     13  H   UNL     1       7.466   6.390   0.000  0.00  0.00    +0.191 HD
ATOM     14  C   UNL     1       5.576   4.500   0.000  0.00  0.00    +0.163 A 
ATOM     15  N   UNL     1       4.277   5.250   0.000  0.00  0.00    -0.233 NA
ENDROOT
BRANCH   4   5
ATOM      5  O   UNL     1       4.277   0.750   0.000  0.00  0.00    -0.506 OA
ATOM      6  H   UNL     1       3.466   0.281   0.000  0.00  0.00    +0.292 HD
ENDBRANCH   4   5
BRANCH   8   9
ATOM      9  O   UNL     1       7.466   1.110   0.000  0.00  0.00    -0.491 OA
ATOM     10  H   UNL     1       6.839   0.414   0.000  0.00  0.00    +0.294 HD
ENDBRANCH   8   9
TORSDOF 2