REMARK  Name = 12633
REMARK  7 active torsions:
REMARK  status: ('A' for Active; 'I' for Inactive)
REMARK    1  A    between atoms: AS_5  and  C_8
REMARK    2  A    between atoms: AS_5  and  O_13
REMARK    3  A    between atoms: AS_5  and  O_15
REMARK    4  A    between atoms: N_6  and  C_7
REMARK    5  A    between atoms: N_6  and  C_14
REMARK    6  A    between atoms: C_12  and  C_14
REMARK    7  A    between atoms: C_12  and  O_16
REMARK                            x       y       z     vdW  Elec       q    Type
REMARK                         _______ _______ _______ _____ _____    ______ ____
ROOT
ATOM      7  C   UNL     1       5.571  -0.649   0.000  0.00  0.00    +0.000 A 
ATOM      8  C   UNL     1       6.870  -1.400   0.000  0.00  0.00    +0.000 A 
ATOM      9  C   UNL     1       6.870  -2.900   0.000  0.00  0.00    +0.000 A 
ATOM     10  C   UNL     1       5.571  -3.650   0.000  0.00  0.00    +0.000 A 
ATOM     18  C   UNL     1       4.272  -2.900   0.000  0.00  0.00    +0.000 A 
ATOM     19  C   UNL     1       4.272  -1.400   0.000  0.00  0.00    +0.000 A 
ENDROOT
BRANCH   7   2
ATOM      1  O   UNL     1       4.071   0.851   0.000  0.00  0.00    +0.000 OA
ATOM      2 AS   UNL     1       5.571   0.851   0.000  0.00  0.00    +0.000 As
BRANCH   2   3
ATOM      3  O   UNL     1       7.071   0.851   0.000  0.00  0.00    +0.000 OA
ATOM      4  H   UNL     1       7.556   0.010   0.000  0.00  0.00    +0.000 HD
ENDBRANCH   2   3
BRANCH   2   5
ATOM      5  O   UNL     1       5.571   2.350   0.000  0.00  0.00    +0.000 OA
ATOM      6  H   UNL     1       6.411   2.835   0.000  0.00  0.00    +0.000 HD
ENDBRANCH   2   5
ENDBRANCH   7   2
BRANCH  10  11
ATOM     11  N   UNL     1       5.571  -5.149   0.000  0.00  0.00    +0.000 N 
ATOM     17  H   UNL     1       4.272  -5.899   0.000  0.00  0.00    +0.000 HD
BRANCH  11  12
ATOM     12  C   UNL     1       6.870  -5.899   0.000  0.00  0.00    +0.000 C 
BRANCH  12  13
ATOM     13  C   UNL     1       8.169  -5.149   0.000  0.00  0.00    +0.000 C 
ATOM     16  O   UNL     1       8.169  -3.650   0.000  0.00  0.00    +0.000 OA
BRANCH  13  14
ATOM     14  O   UNL     1       9.468  -5.899   0.000  0.00  0.00    +0.000 OA
ATOM     15  H   UNL     1       9.468  -6.836   0.000  0.00  0.00    +0.000 HD
ENDBRANCH  13  14
ENDBRANCH  12  13
ENDBRANCH  11  12
ENDBRANCH  10  11
TORSDOF 7