REMARK  Name = 14540
REMARK  6 active torsions:
REMARK  status: ('A' for Active; 'I' for Inactive)
REMARK    1  A    between atoms: P_2  and  O_10
REMARK    2  A    between atoms: C_5  and  C_8
REMARK    3  A    between atoms: C_7  and  C_9
REMARK    4  A    between atoms: O_10  and  C_11
REMARK    5  A    between atoms: C_11  and  C_12
REMARK    6  A    between atoms: C_12  and  C_13
REMARK                            x       y       z     vdW  Elec       q    Type
REMARK                         _______ _______ _______ _____ _____    ______ ____
ROOT
ATOM      1  O   UNL     1      -5.927  -5.788   0.000  0.00  0.00    -0.283 OA
ATOM      2  C   UNL     1      -7.226  -6.538   0.000  0.00  0.00    +0.130 C 
ATOM      3  C   UNL     1      -8.525  -5.788   0.000  0.00  0.00    +0.038 C 
ATOM      4  C   UNL     1      -7.226  -8.038   0.000  0.00  0.00    +0.063 C 
ATOM      5  C   UNL     1      -5.927  -8.788   0.000  0.00  0.00    +0.130 C 
ATOM      6  C   UNL     1      -5.927 -10.288   0.000  0.00  0.00    +0.038 C 
ATOM      7  O   UNL     1      -4.628  -8.038   0.000  0.00  0.00    -0.283 OA
ATOM      8  P   UNL     1      -4.628  -6.538   0.000  0.00  0.00    +0.478 P 
ATOM     14  O   UNL     1      -3.151  -6.798   0.000  0.00  0.00    -0.227 OA
ENDROOT
BRANCH   8   9
ATOM      9  O   UNL     1      -4.115  -5.128   0.000  0.00  0.00    -0.286 OA
BRANCH   9  10
ATOM     10  C   UNL     1      -2.638  -4.868   0.000  0.00  0.00    +0.187 C 
BRANCH  10  11
ATOM     11  C   UNL     1      -2.124  -3.458   0.000  0.00  0.00    +0.147 C 
BRANCH  11  12
ATOM     12  C   UNL     1      -0.647  -3.198   0.000  0.00  0.00    +0.065 C 
ATOM     13  N   UNL     1       0.830  -2.937   0.000  0.00  0.00    -0.196 NA
ENDBRANCH  11  12
ENDBRANCH  10  11
ENDBRANCH   9  10
ENDBRANCH   8   9
TORSDOF 4