REMARK  Name = 153330
REMARK  1 active torsions:
REMARK  status: ('A' for Active; 'I' for Inactive)
REMARK    1  A    between atoms: C_15  and  C_16
REMARK                            x       y       z     vdW  Elec       q    Type
REMARK                         _______ _______ _______ _____ _____    ______ ____
ROOT
ATOM      1  S   UNL     1      -4.717  -3.494   0.000  0.00  0.00    -0.075 S 
ATOM      2  C   UNL     1      -3.290  -3.957   0.000  0.00  0.00    +0.092 A 
ATOM      3  C   UNL     1      -3.290  -5.457   0.000  0.00  0.00    +0.075 A 
ATOM      4  C   UNL     1      -1.991  -6.207   0.000  0.00  0.00    +0.282 A 
ATOM      5  N   UNL     1      -0.692  -5.457   0.000  0.00  0.00    -0.196 NA
ATOM      6  C   UNL     1      -0.692  -3.957   0.000  0.00  0.00    +0.109 A 
ATOM      7  C   UNL     1       0.607  -3.207   0.000  0.00  0.00    +0.086 C 
ATOM      8  O   UNL     1      -1.991  -7.707   0.000  0.00  0.00    -0.265 OA
ATOM      9  C   UNL     1      -4.717  -5.921   0.000  0.00  0.00    -0.023 A 
ATOM     10  C   UNL     1      -5.327  -7.291   0.000  0.00  0.00    +0.037 C 
ATOM     11  C   UNL     1      -6.819  -7.448   0.000  0.00  0.00    +0.005 C 
ATOM     12  C   UNL     1      -7.700  -6.235   0.000  0.00  0.00    +0.005 C 
ATOM     13  C   UNL     1      -7.090  -4.864   0.000  0.00  0.00    +0.043 C 
ATOM     14  N   UNL     1      -1.991  -3.207   0.000  0.00  0.00    -0.338 N 
ATOM     15  H   UNL     1      -1.991  -1.707   0.000  0.00  0.00    +0.167 HD
ATOM     16  C   UNL     1      -5.598  -4.707   0.000  0.00  0.00    -0.004 A 
ENDROOT
TORSDOF 0