REMARK  Name = 128606
REMARK  5 active torsions:
REMARK  status: ('A' for Active; 'I' for Inactive)
REMARK    1  A    between atoms: C_15  and  N_28
REMARK    2  A    between atoms: C_16  and  C_29
REMARK    3  A    between atoms: C_17  and  C_19
REMARK    4  A    between atoms: C_23  and  C_31
REMARK    5  A    between atoms: C_31  and  O_33
REMARK                            x       y       z     vdW  Elec       q    Type
REMARK                         _______ _______ _______ _____ _____    ______ ____
ROOT
ATOM     12  N   UNL     1      -8.169  -3.650   0.000  0.00  0.00    -0.281 N 
ATOM     13  H   UNL     1      -9.022  -4.142   0.000  0.00  0.00    +0.155 HD
ATOM     14  C   UNL     1      -6.870  -4.400   0.000  0.00  0.00    +0.249 C 
ATOM     15  O   UNL     1      -6.870  -5.900   0.000  0.00  0.00    -0.270 OA
ENDROOT
BRANCH  12  11
ATOM      1  O   UNL     1      -9.468   4.600   0.000  0.00  0.00    -0.245 OA
ATOM      2  C   UNL     1      -9.468   3.100   0.000  0.00  0.00    +0.345 A 
ATOM      3  C   UNL     1     -10.767   2.350   0.000  0.00  0.00    +0.067 A 
ATOM      4  C   UNL     1     -12.066   3.100   0.000  0.00  0.00    +0.015 A 
ATOM      5  C   UNL     1     -13.365   2.350   0.000  0.00  0.00    +0.001 A 
ATOM      6  C   UNL     1     -13.365   0.850   0.000  0.00  0.00    +0.001 A 
ATOM      7  C   UNL     1     -12.066   0.100   0.000  0.00  0.00    +0.009 A 
ATOM      8  C   UNL     1     -10.767   0.850   0.000  0.00  0.00    -0.000 A 
ATOM      9  C   UNL     1      -9.468   0.100   0.000  0.00  0.00    +0.027 A 
ATOM     10  C   UNL     1      -9.468  -1.400   0.000  0.00  0.00    +0.035 A 
ATOM     11  C   UNL     1      -8.169  -2.150   0.000  0.00  0.00    +0.034 A 
ATOM     32  C   UNL     1      -6.870  -1.400   0.000  0.00  0.00    +0.027 A 
ATOM     33  C   UNL     1      -6.870   0.100   0.000  0.00  0.00    +0.049 A 
ATOM     34  C   UNL     1      -8.169   0.850   0.000  0.00  0.00    +0.140 A 
ATOM     35  O   UNL     1      -8.169   2.350   0.000  0.00  0.00    -0.422 OA
ENDBRANCH  12  11
BRANCH  14  16
ATOM     16  C   UNL     1      -5.571  -3.650   0.000  0.00  0.00    +0.045 A 
ATOM     17  C   UNL     1      -5.571  -2.150   0.000  0.00  0.00    +0.013 A 
ATOM     18  C   UNL     1      -4.272  -1.400   0.000  0.00  0.00    +0.001 A 
ATOM     19  C   UNL     1      -2.973  -2.150   0.000  0.00  0.00    +0.001 A 
ATOM     20  C   UNL     1      -2.973  -3.650   0.000  0.00  0.00    +0.009 A 
ATOM     21  C   UNL     1      -4.272  -4.399   0.000  0.00  0.00    -0.005 A 
BRANCH  21  22
ATOM     22  C   UNL     1      -4.272  -5.899   0.000  0.00  0.00    -0.003 A 
ATOM     23  C   UNL     1      -5.571  -6.650   0.000  0.00  0.00    +0.009 A 
ATOM     24  C   UNL     1      -5.571  -8.150   0.000  0.00  0.00    +0.001 A 
ATOM     25  C   UNL     1      -4.272  -8.899   0.000  0.00  0.00    +0.001 A 
ATOM     26  C   UNL     1      -2.973  -8.149   0.000  0.00  0.00    +0.015 A 
ATOM     27  C   UNL     1      -2.973  -6.649   0.000  0.00  0.00    +0.067 A 
BRANCH  27  28
ATOM     28  C   UNL     1      -1.674  -5.899   0.000  0.00  0.00    +0.337 C 
ATOM     31  O   UNL     1      -0.375  -6.649   0.000  0.00  0.00    -0.245 OA
BRANCH  28  29
ATOM     29  O   UNL     1      -1.674  -4.399   0.000  0.00  0.00    -0.477 OA
ATOM     30  H   UNL     1      -0.863  -3.931   0.000  0.00  0.00    +0.295 HD
ENDBRANCH  28  29
ENDBRANCH  27  28
ENDBRANCH  21  22
ENDBRANCH  14  16
TORSDOF 5