REMARK  Name = 11643
REMARK  4 active torsions:
REMARK  status: ('A' for Active; 'I' for Inactive)
REMARK    1  A    between atoms: N_4  and  C_20
REMARK    2  A    between atoms: C_11  and  N_17
REMARK    3  A    between atoms: N_17  and  C_18
REMARK    4  A    between atoms: C_18  and  C_19
REMARK                            x       y       z     vdW  Elec       q    Type
REMARK                         _______ _______ _______ _____ _____    ______ ____
ROOT
ATOM      1 CL   UNL     1       2.537   2.154   0.000  0.00  0.00    -0.041 Cl
ATOM      2  C   UNL     1       4.029   2.311   0.000  0.00  0.00    +0.226 A 
ATOM      3  N   UNL     1       4.639   3.681   0.000  0.00  0.00    -0.198 NA
ATOM      4  C   UNL     1       6.131   3.838   0.000  0.00  0.00    +0.164 A 
ATOM      5  C   UNL     1       7.013   2.625   0.000  0.00  0.00    +0.079 A 
ATOM      6  C   UNL     1       8.439   3.088   0.000  0.00  0.00    +0.148 A 
ATOM      7  N   UNL     1       8.439   4.588   0.000  0.00  0.00    -0.177 NA
ATOM      8  C   UNL     1       6.402   1.254   0.000  0.00  0.00    +0.141 A 
ATOM      9  N   UNL     1       7.284   0.041   0.000  0.00  0.00    -0.285 N 
ATOM     18  N   UNL     1       7.013   5.052   0.000  0.00  0.00    -0.249 N 
ATOM     19  C   UNL     1       6.549   6.478   0.000  0.00  0.00    +0.174 C 
ATOM     20  N   UNL     1       4.911   1.098   0.000  0.00  0.00    -0.201 NA
ENDROOT
BRANCH   9  12
ATOM     12  C   UNL     1       8.776   0.198   0.000  0.00  0.00    +0.035 A 
ATOM     13  C   UNL     1       9.658  -1.016   0.000  0.00  0.00    +0.023 A 
ATOM     14  C   UNL     1      11.149  -0.859   0.000  0.00  0.00    +0.002 A 
ATOM     15  C   UNL     1      11.759   0.511   0.000  0.00  0.00    +0.000 A 
ATOM     16  C   UNL     1      10.878   1.725   0.000  0.00  0.00    +0.002 A 
ATOM     17  C   UNL     1       9.386   1.568   0.000  0.00  0.00    +0.023 A 
ENDBRANCH   9  12
BRANCH   9  10
ATOM     10  C   UNL     1       6.674  -1.329   0.000  0.00  0.00    +0.109 C 
ATOM     11  C   UNL     1       5.182  -1.486   0.000  0.00  0.00    +0.025 C 
ENDBRANCH   9  10
TORSDOF 2