REMARK  Name = 121268
REMARK  2 active torsions:
REMARK  status: ('A' for Active; 'I' for Inactive)
REMARK    1  A    between atoms: C_15  and  O_19
REMARK    2  A    between atoms: O_19  and  C_20
REMARK                            x       y       z     vdW  Elec       q    Type
REMARK                         _______ _______ _______ _____ _____    ______ ____
ROOT
ATOM      1  N   UNL     1       6.120   5.899   0.000  0.00  0.00    -0.277 NA
ATOM      2  C   UNL     1       6.120   4.399   0.000  0.00  0.00    +0.091 C 
ATOM      3  C   UNL     1       4.821   3.650   0.000  0.00  0.00    +0.051 C 
ATOM      4  C   UNL     1       3.522   4.399   0.000  0.00  0.00    -0.038 A 
ATOM      5  C   UNL     1       2.223   3.650   0.000  0.00  0.00    +0.049 A 
ATOM      6  C   UNL     1       0.924   4.399   0.000  0.00  0.00    +0.120 A 
ATOM      9  C   UNL     1       0.924   5.899   0.000  0.00  0.00    +0.046 A 
ATOM     10  C   UNL     1       2.223   6.649   0.000  0.00  0.00    +0.009 A 
ATOM     11  C   UNL     1       3.522   5.899   0.000  0.00  0.00    -0.027 A 
ATOM     12  C   UNL     1       4.821   6.649   0.000  0.00  0.00    +0.090 C 
ATOM     13  C   UNL     1       4.821   8.149   0.000  0.00  0.00    +0.043 C 
ATOM     14  C   UNL     1       6.120   8.899   0.000  0.00  0.00    +0.111 C 
ATOM     15  N   UNL     1       7.419   8.149   0.000  0.00  0.00    -0.286 N 
ATOM     16  C   UNL     1       8.846   8.613   0.000  0.00  0.00    +0.217 C 
ATOM     17  C   UNL     1       9.727   7.399   0.000  0.00  0.00    +0.099 C 
ATOM     18  C   UNL     1       8.846   6.186   0.000  0.00  0.00    +0.048 C 
ATOM     19  O   UNL     1       9.309  10.040   0.000  0.00  0.00    -0.276 OA
ATOM     20  C   UNL     1       7.419   6.649   0.000  0.00  0.00    +0.148 C 
ENDROOT
BRANCH   6   7
ATOM      7  O   UNL     1      -0.375   3.650   0.000  0.00  0.00    -0.495 OA
ATOM      8  C   UNL     1      -1.674   4.399   0.000  0.00  0.00    +0.277 C 
ENDBRANCH   6   7
TORSDOF 1