REMARK  Name = 17362
REMARK  3 active torsions:
REMARK  status: ('A' for Active; 'I' for Inactive)
REMARK    1  A    between atoms: C_6  and  C_7
REMARK    2  A    between atoms: C_12  and  C_20
REMARK    3  A    between atoms: C_14  and  C_20
REMARK                            x       y       z     vdW  Elec       q    Type
REMARK                         _______ _______ _______ _____ _____    ______ ____
ROOT
ATOM      1  O   UNL     1      -8.476   6.484   0.000  0.00  0.00    -0.242 OA
ATOM      2  C   UNL     1      -7.865   5.114   0.000  0.00  0.00    +0.376 C 
ATOM      3  C   UNL     1      -6.398   4.802   0.000  0.00  0.00    +0.250 C 
ATOM      4  C   UNL     1      -6.241   3.311   0.000  0.00  0.00    +0.138 C 
ATOM      5  C   UNL     1      -7.612   2.700   0.000  0.00  0.00    +0.196 C 
ATOM     19  O   UNL     1      -5.284   5.806   0.000  0.00  0.00    -0.284 OA
ATOM     20  O   UNL     1      -8.616   3.815   0.000  0.00  0.00    -0.454 OA
ENDROOT
BRANCH   4  13
ATOM     13  C   UNL     1      -4.942   2.561   0.000  0.00  0.00    -0.033 A 
ATOM     14  C   UNL     1      -3.643   3.311   0.000  0.00  0.00    +0.004 A 
ATOM     15  C   UNL     1      -2.344   2.561   0.000  0.00  0.00    +0.000 A 
ATOM     16  C   UNL     1      -2.344   1.061   0.000  0.00  0.00    +0.000 A 
ATOM     17  C   UNL     1      -3.643   0.311   0.000  0.00  0.00    +0.000 A 
ATOM     18  C   UNL     1      -4.942   1.061   0.000  0.00  0.00    +0.004 A 
ENDBRANCH   4  13
BRANCH   5   6
ATOM      6  C   UNL     1      -7.924   1.233   0.000  0.00  0.00    +0.080 C 
BRANCH   6   7
ATOM      7  C   UNL     1      -9.350   0.770   0.000  0.00  0.00    -0.044 A 
ATOM      8  C   UNL     1      -9.662  -0.698   0.000  0.00  0.00    +0.004 A 
ATOM      9  C   UNL     1     -11.089  -1.161   0.000  0.00  0.00    +0.000 A 
ATOM     10  C   UNL     1     -12.203  -0.157   0.000  0.00  0.00    +0.000 A 
ATOM     11  C   UNL     1     -11.892   1.310   0.000  0.00  0.00    +0.000 A 
ATOM     12  C   UNL     1     -10.465   1.773   0.000  0.00  0.00    +0.004 A 
ENDBRANCH   6   7
ENDBRANCH   5   6
TORSDOF 3