REMARK  Name = 18473
REMARK  3 active torsions:
REMARK  status: ('A' for Active; 'I' for Inactive)
REMARK    1  A    between atoms: C_2  and  C_7
REMARK    2  A    between atoms: C_3  and  O_9
REMARK    3  A    between atoms: C_7  and  O_8
REMARK                            x       y       z     vdW  Elec       q    Type
REMARK                         _______ _______ _______ _____ _____    ______ ____
ROOT
ATOM      1  N   UNK A   1      -4.647  -0.750   0.000  0.00  0.00    -0.254 NA
ATOM      2  C   UNK A   0      -5.946  -1.500   0.000  0.00  0.00    +0.111 A 
ATOM      3  C   UNK A   0      -5.946  -3.000   0.000  0.00  0.00    +0.023 A 
ATOM      4  C   UNK A   1      -4.647  -3.750   0.000  0.00  0.00    +0.049 A 
ATOM      5  C   UNK A   1      -3.348  -3.000   0.000  0.00  0.00    +0.140 A 
ATOM      8  C   UNK A   1      -3.348  -1.500   0.000  0.00  0.00    +0.108 A 
ENDROOT
BRANCH   5   6
ATOM      6  O   UNK A   1      -2.049  -3.750   0.000  0.00  0.00    -0.505 OA
ATOM      7  H   UNK A   1      -2.049  -4.687   0.000  0.00  0.00    +0.292 HD
ENDBRANCH   5   6
BRANCH   8   9
ATOM      9  C   UNK A   1      -2.049  -0.750   0.000  0.00  0.00    +0.214 C 
BRANCH   9  10
ATOM     10  O   UNK A   1      -0.750  -1.500   0.000  0.00  0.00    -0.389 OA
ATOM     11  H   UNK A   1      -0.750  -2.470   0.000  0.00  0.00    +0.210 HD
ENDBRANCH   9  10
ENDBRANCH   8   9
TORSDOF 3