REMARK  Name = 168184
REMARK  8 active torsions:
REMARK  status: ('A' for Active; 'I' for Inactive)
REMARK    1  A    between atoms: N_3  and  C_6
REMARK    2  A    between atoms: C_10  and  C_23
REMARK    3  A    between atoms: C_11  and  C_21
REMARK    4  A    between atoms: C_11  and  C_22
REMARK    5  A    between atoms: C_13  and  C_14
REMARK    6  A    between atoms: C_13  and  S_15
REMARK    7  A    between atoms: S_15  and  O_18
REMARK    8  A    between atoms: C_23  and  N_24
REMARK                            x       y       z     vdW  Elec       q    Type
REMARK                         _______ _______ _______ _____ _____    ______ ____
ROOT
ATOM      2  S   UNL     1       1.471  11.153   0.000  0.00  0.00    +0.079 S 
ATOM      5  O   UNL     1       2.770  10.403   0.000  0.00  0.00    -0.147 OA
ATOM      6  O   UNL     1       0.172  11.903   0.000  0.00  0.00    -0.147 OA
ENDROOT
BRANCH   2   1
ATOM      1  C   UNL     1       2.221  12.452   0.000  0.00  0.00    +0.194 C 
ATOM      7  C   UNL     1       3.721  12.452   0.000  0.00  0.00    +0.030 C 
ENDBRANCH   2   1
BRANCH   2   3
ATOM      3  O   UNL     1       0.721   9.854   0.000  0.00  0.00    -0.254 OA
ATOM      4  H   UNL     1      -0.249   9.854   0.000  0.00  0.00    +0.244 HD
ENDBRANCH   2   3
TORSDOF 2