REMARK  Name = 111194
REMARK  5 active torsions:
REMARK  status: ('A' for Active; 'I' for Inactive)
REMARK    1  A    between atoms: N_1  and  C_22
REMARK    2  A    between atoms: N_2  and  C_5
REMARK    3  A    between atoms: C_16  and  C_22
REMARK    4  A    between atoms: C_18  and  O_20
REMARK    5  A    between atoms: O_20  and  C_21
REMARK                            x       y       z     vdW  Elec       q    Type
REMARK                         _______ _______ _______ _____ _____    ______ ____
ROOT
ATOM      1  N   UNL     1      -1.573  10.775   0.000  0.00  0.00    -0.321 N 
ATOM     12  C   UNL     1      -0.275  10.025   0.000  0.00  0.00    +0.124 C 
ATOM     13  C   UNL     1       1.025  10.775   0.000  0.00  0.00    +0.124 C 
ATOM     14  N   UNL     1       1.025  12.275   0.000  0.00  0.00    -0.327 N 
ATOM     15  C   UNL     1      -0.275  13.025   0.000  0.00  0.00    +0.124 C 
ATOM     23  C   UNL     1      -1.573  12.275   0.000  0.00  0.00    +0.124 C 
ENDROOT
BRANCH  14  16
ATOM     16  C   UNL     1       2.324  13.025   0.000  0.00  0.00    +0.031 A 
ATOM     17  C   UNL     1       3.623  12.275   0.000  0.00  0.00    +0.043 A 
ATOM     18  C   UNL     1       4.922  13.025   0.000  0.00  0.00    +0.043 A 
ATOM     19  C   UNL     1       4.922  14.525   0.000  0.00  0.00    +0.020 A 
ATOM     20  C   UNL     1       3.623  15.275   0.000  0.00  0.00    +0.003 A 
ATOM     21 CL   UNL     1       6.221  12.275   0.000  0.00  0.00    -0.083 Cl
ATOM     22  C   UNL     1       2.324  14.525   0.000  0.00  0.00    +0.023 A 
ENDBRANCH  14  16
BRANCH   1   2
ATOM      2  C   UNL     1      -2.873  10.025   0.000  0.00  0.00    +0.082 C 
ATOM      3  S   UNL     1      -4.172  10.775   0.000  0.00  0.00    -0.035 S 
BRANCH   2   4
ATOM      4  C   UNL     1      -2.873   8.524   0.000  0.00  0.00    +0.004 A 
ATOM      5  C   UNL     1      -1.573   7.774   0.000  0.00  0.00    +0.014 A 
ATOM      6  C   UNL     1      -1.573   6.274   0.000  0.00  0.00    +0.046 A 
ATOM      7  C   UNL     1      -2.873   5.524   0.000  0.00  0.00    +0.120 A 
ATOM     10  C   UNL     1      -4.172   6.274   0.000  0.00  0.00    +0.046 A 
ATOM     11  C   UNL     1      -4.172   7.774   0.000  0.00  0.00    +0.014 A 
BRANCH   7   8
ATOM      8  O   UNL     1      -2.873   4.024   0.000  0.00  0.00    -0.495 OA
ATOM      9  C   UNL     1      -4.172   3.275   0.000  0.00  0.00    +0.277 C 
ENDBRANCH   7   8
ENDBRANCH   2   4
ENDBRANCH   1   2
TORSDOF 4