REMARK  Name = 11664
REMARK  7 active torsions:
REMARK  status: ('A' for Active; 'I' for Inactive)
REMARK    1  A    between atoms: N_3  and  C_10
REMARK    2  A    between atoms: C_11  and  C_16
REMARK    3  A    between atoms: C_16  and  C_17
REMARK    4  A    between atoms: N_18  and  C_19
REMARK    5  A    between atoms: C_19  and  C_20
REMARK    6  A    between atoms: C_19  and  C_21
REMARK    7  A    between atoms: C_19  and  C_22
REMARK                            x       y       z     vdW  Elec       q    Type
REMARK                         _______ _______ _______ _____ _____    ______ ____
ROOT
ATOM      1  N   UNL     1       4.656  -8.424   0.000  0.00  0.00    -0.217 NA
ATOM      2  C   UNL     1       3.774  -7.210   0.000  0.00  0.00    +0.133 A 
ATOM      5  N   UNL     1       4.385  -5.840   0.000  0.00  0.00    -0.212 NA
ATOM      6  C   UNL     1       5.876  -5.683   0.000  0.00  0.00    +0.168 A 
ATOM      7  C   UNL     1       6.758  -6.897   0.000  0.00  0.00    +0.079 A 
ATOM      8  C   UNL     1       8.184  -6.433   0.000  0.00  0.00    +0.148 A 
ATOM      9  N   UNL     1       8.184  -4.933   0.000  0.00  0.00    -0.172 NA
ATOM     10  N   UNL     1       6.758  -4.470   0.000  0.00  0.00    -0.214 N 
ATOM     17  C   UNL     1       6.148  -8.267   0.000  0.00  0.00    +0.133 A 
ATOM     18  N   UNL     1       7.029  -9.481   0.000  0.00  0.00    -0.324 N 
ATOM     19  H   UNL     1       8.009  -9.378   0.000  0.00  0.00    +0.148 HD
ENDROOT
BRANCH  10  11
ATOM     11  C   UNL     1       6.294  -3.043   0.000  0.00  0.00    +0.068 A 
ATOM     12  C   UNL     1       4.827  -2.731   0.000  0.00  0.00    +0.028 A 
ATOM     13  C   UNL     1       4.364  -1.305   0.000  0.00  0.00    +0.002 A 
ATOM     14  C   UNL     1       5.367  -0.190   0.000  0.00  0.00    +0.000 A 
ATOM     15  C   UNL     1       6.835  -0.502   0.000  0.00  0.00    +0.002 A 
ATOM     16  C   UNL     1       7.298  -1.928   0.000  0.00  0.00    +0.028 A 
ENDBRANCH  10  11
BRANCH  18  20
ATOM     20  C   UNL     1       6.419 -10.851   0.000  0.00  0.00    +0.025 C 
ATOM     21  C   UNL     1       7.790 -11.461   0.000  0.00  0.00    +0.031 C 
ATOM     22  C   UNL     1       5.809 -12.221   0.000  0.00  0.00    +0.031 C 
ATOM     23  C   UNL     1       5.049 -10.241   0.000  0.00  0.00    +0.031 C 
ENDBRANCH  18  20
BRANCH   2   3
ATOM      3  C   UNL     1       2.283  -7.367   0.000  0.00  0.00    +0.073 C 
ATOM      4  C   UNL     1       1.673  -8.738   0.000  0.00  0.00    +0.012 C 
ENDBRANCH   2   3
TORSDOF 3