REMARK  Name = 134577
REMARK  4 active torsions:
REMARK  status: ('A' for Active; 'I' for Inactive)
REMARK    1  A    between atoms: C_3  and  N_7
REMARK    2  A    between atoms: C_8  and  C_10
REMARK    3  A    between atoms: C_10  and  C_11
REMARK    4  A    between atoms: C_10  and  C_12
REMARK                            x       y       z     vdW  Elec       q    Type
REMARK                         _______ _______ _______ _____ _____    ______ ____
ROOT
ATOM      6  N   UNL     1       4.647   3.750   0.000  0.00  0.00    -0.284 N 
ATOM      7  H   UNL     1       4.647   4.734   0.000  0.00  0.00    +0.155 HD
ATOM      8  C   UNL     1       5.946   3.000   0.000  0.00  0.00    +0.220 C 
ATOM     12  O   UNL     1       7.245   3.750   0.000  0.00  0.00    -0.275 OA
ENDROOT
BRANCH   6   5
ATOM      1  N   UNL     1       0.750   3.000   0.000  0.00  0.00    -0.261 NA
ATOM      2  C   UNL     1       0.750   1.500   0.000  0.00  0.00    +0.111 A 
ATOM      3  C   UNL     1       2.049   0.750   0.000  0.00  0.00    +0.021 A 
ATOM      4  C   UNL     1       3.348   1.500   0.000  0.00  0.00    +0.026 A 
ATOM      5  C   UNL     1       3.348   3.000   0.000  0.00  0.00    +0.052 A 
ATOM     13  C   UNL     1       2.049   3.750   0.000  0.00  0.00    +0.134 A 
ENDBRANCH   6   5
BRANCH   8   9
ATOM      9  C   UNL     1       5.946   1.500   0.000  0.00  0.00    +0.069 C 
ATOM     10  C   UNL     1       4.647   0.750   0.000  0.00  0.00    +0.017 C 
ATOM     11  C   UNL     1       7.245   0.750   0.000  0.00  0.00    +0.017 C 
ENDBRANCH   8   9
TORSDOF 2