REMARK  Name = 120312
REMARK  4 active torsions:
REMARK  status: ('A' for Active; 'I' for Inactive)
REMARK    1  A    between atoms: C_4  and  C_11
REMARK    2  A    between atoms: C_5  and  C_12
REMARK    3  A    between atoms: C_12  and  C_13
REMARK    4  A    between atoms: C_13  and  O_14
REMARK                            x       y       z     vdW  Elec       q    Type
REMARK                         _______ _______ _______ _____ _____    ______ ____
ROOT
ATOM      1  N   UNL     1      -6.808  -2.640   0.000  0.00  0.00    -0.285 N 
ATOM      2  C   UNL     1      -8.107  -1.890   0.000  0.00  0.00    +0.142 C 
ATOM      3  C   UNL     1      -9.406  -2.640   0.000  0.00  0.00    +0.025 C 
ATOM      4  C   UNL     1      -9.406  -4.140   0.000  0.00  0.00    +0.025 C 
ATOM      5  C   UNL     1      -8.107  -4.890   0.000  0.00  0.00    +0.145 C 
ATOM      6  C   UNL     1      -5.382  -2.177   0.000  0.00  0.00    +0.041 A 
ATOM      7  C   UNL     1      -4.918  -0.750   0.000  0.00  0.00    +0.065 C 
ATOM      8  C   UNL     1      -4.500  -3.390   0.000  0.00  0.00    +0.041 A 
ATOM     13  C   UNL     1      -5.382  -4.604   0.000  0.00  0.00    +0.271 A 
ATOM     14  O   UNL     1      -4.918  -6.030   0.000  0.00  0.00    -0.266 OA
ATOM     15  N   UNL     1      -6.808  -4.140   0.000  0.00  0.00    -0.249 N 
ENDROOT
BRANCH   8   9
ATOM      9  C   UNL     1      -3.000  -3.390   0.000  0.00  0.00    +0.070 C 
BRANCH   9  10
ATOM     10  C   UNL     1      -2.250  -4.689   0.000  0.00  0.00    +0.160 C 
BRANCH  10  11
ATOM     11  O   UNL     1      -0.750  -4.689   0.000  0.00  0.00    -0.395 OA
ATOM     12  H   UNL     1      -0.265  -5.529   0.000  0.00  0.00    +0.209 HD
ENDBRANCH  10  11
ENDBRANCH   9  10
ENDBRANCH   8   9
TORSDOF 3