REMARK  Name = 111107
REMARK  5 active torsions:
REMARK  status: ('A' for Active; 'I' for Inactive)
REMARK    1  A    between atoms: C_5  and  C_9
REMARK    2  A    between atoms: C_6  and  C_10
REMARK    3  A    between atoms: C_8  and  S_11
REMARK    4  A    between atoms: S_11  and  C_12
REMARK    5  A    between atoms: C_12  and  C_13
REMARK                            x       y       z     vdW  Elec       q    Type
REMARK                         _______ _______ _______ _____ _____    ______ ____
ROOT
ATOM      1  N   UNL     1      -3.522  -4.399   0.000  0.00  0.00    -0.338 N 
ATOM      2  H   UNL     1      -3.522  -2.900   0.000  0.00  0.00    +0.168 HD
ATOM      3  C   UNL     1      -2.223  -5.149   0.000  0.00  0.00    +0.170 A 
ATOM      7  N   UNL     1      -2.223  -6.649   0.000  0.00  0.00    -0.185 NA
ATOM      8  C   UNL     1      -3.522  -7.399   0.000  0.00  0.00    +0.277 A 
ATOM      9  C   UNL     1      -4.821  -6.649   0.000  0.00  0.00    +0.035 A 
ATOM     10  C   UNL     1      -6.120  -7.399   0.000  0.00  0.00    +0.051 C 
ATOM     11  O   UNL     1      -3.522  -8.899   0.000  0.00  0.00    -0.265 OA
ATOM     12  C   UNL     1      -4.821  -5.149   0.000  0.00  0.00    +0.023 A 
ATOM     13  C   UNL     1      -6.120  -4.399   0.000  0.00  0.00    +0.064 C 
ENDROOT
BRANCH   3   4
ATOM      4  S   UNL     1      -0.924  -4.399   0.000  0.00  0.00    -0.088 S 
BRANCH   4   5
ATOM      5  C   UNL     1       0.375  -5.149   0.000  0.00  0.00    +0.074 C 
ATOM      6  C   UNL     1       1.674  -4.399   0.000  0.00  0.00    +0.016 C 
ENDBRANCH   4   5
ENDBRANCH   3   4
TORSDOF 2