REMARK  Name = 103520
REMARK  4 active torsions:
REMARK  status: ('A' for Active; 'I' for Inactive)
REMARK    1  A    between atoms: N_3  and  C_10
REMARK    2  A    between atoms: C_7  and  C_25
REMARK    3  A    between atoms: C_8  and  N_24
REMARK    4  A    between atoms: C_15  and  N_24
REMARK                            x       y       z     vdW  Elec       q    Type
REMARK                         _______ _______ _______ _____ _____    ______ ____
ROOT
ATOM      1  N   UNL     1      -3.623  -7.774   0.000  0.00  0.00    -0.199 NA
ATOM      2  C   UNL     1      -3.623  -9.274   0.000  0.00  0.00    +0.216 A 
ATOM      3  N   UNL     1      -4.922 -10.025   0.000  0.00  0.00    -0.327 N 
ATOM      4  H   UNL     1      -4.922 -11.009   0.000  0.00  0.00    +0.145 HD
ATOM      5  H   UNL     1      -5.774  -9.532   0.000  0.00  0.00    +0.145 HD
ATOM      6  N   UNL     1      -2.324 -10.025   0.000  0.00  0.00    -0.199 NA
ATOM      7  C   UNL     1      -1.025  -9.274   0.000  0.00  0.00    +0.138 A 
ATOM     17  C   UNL     1      -1.025  -7.774   0.000  0.00  0.00    +0.073 A 
ATOM     27  C   UNL     1      -2.324  -7.024   0.000  0.00  0.00    +0.132 A 
ATOM     28  N   UNL     1      -2.324  -5.524   0.000  0.00  0.00    -0.342 N 
ATOM     29  H   UNL     1      -3.176  -5.032   0.000  0.00  0.00    +0.144 HD
ATOM     30  H   UNL     1      -1.471  -5.032   0.000  0.00  0.00    +0.144 HD
ENDROOT
BRANCH   7   8
ATOM      8  N   UNL     1       0.275 -10.025   0.000  0.00  0.00    -0.299 N 
ATOM      9  H   UNL     1       1.127  -9.532   0.000  0.00  0.00    +0.154 HD
BRANCH   8  10
ATOM     10  C   UNL     1       0.275 -11.525   0.000  0.00  0.00    +0.032 A 
ATOM     11  C   UNL     1      -1.025 -12.275   0.000  0.00  0.00    +0.024 A 
ATOM     12  C   UNL     1      -1.025 -13.775   0.000  0.00  0.00    +0.017 A 
ATOM     13  C   UNL     1       0.275 -14.525   0.000  0.00  0.00    +0.018 A 
ATOM     14  C   UNL     1       1.574 -13.775   0.000  0.00  0.00    +0.017 A 
ATOM     15 BR   UNL     1       0.275 -16.025   0.000  0.00  0.00    -0.050 Br
ATOM     16  C   UNL     1       1.574 -12.275   0.000  0.00  0.00    +0.024 A 
ENDBRANCH   8  10
ENDBRANCH   7   8
BRANCH  17  18
ATOM     18  C   UNL     1       0.275  -7.024   0.000  0.00  0.00    +0.126 C 
ATOM     19  N   UNL     1       1.573  -7.774   0.000  0.00  0.00    -0.255 NA
BRANCH  19  20
ATOM     20  C   UNL     1       2.873  -7.024   0.000  0.00  0.00    +0.064 A 
ATOM     21  C   UNL     1       4.172  -7.774   0.000  0.00  0.00    +0.029 A 
ATOM     22  C   UNL     1       5.471  -7.024   0.000  0.00  0.00    +0.017 A 
ATOM     23  C   UNL     1       5.471  -5.524   0.000  0.00  0.00    +0.018 A 
ATOM     24  C   UNL     1       4.172  -4.774   0.000  0.00  0.00    +0.017 A 
ATOM     25 BR   UNL     1       6.770  -4.774   0.000  0.00  0.00    -0.050 Br
ATOM     26  C   UNL     1       2.873  -5.524   0.000  0.00  0.00    +0.029 A 
ENDBRANCH  19  20
ENDBRANCH  17  18
TORSDOF 4