REMARK  Name = 176367
REMARK  3 active torsions:
REMARK  status: ('A' for Active; 'I' for Inactive)
REMARK    1  A    between atoms: C_3  and  C_17
REMARK    2  A    between atoms: N_13  and  C_14
REMARK    3  A    between atoms: C_14  and  N_16
REMARK                            x       y       z     vdW  Elec       q    Type
REMARK                         _______ _______ _______ _____ _____    ______ ____
ROOT
ATOM      9  C   UNL     1      -7.245  -3.000   0.000  0.00  0.00    +0.142 C 
ATOM     20  S   UNL     1      -7.245  -1.500   0.000  0.00  0.00    -0.018 S 
ENDROOT
BRANCH   9   7
ATOM      1  N   UNL     1      -9.843  -1.500   0.000  0.00  0.00    -0.240 NA
ATOM      2  C   UNL     1     -11.142  -0.750   0.000  0.00  0.00    +0.113 A 
ATOM      3  C   UNL     1     -12.441  -1.500   0.000  0.00  0.00    +0.020 A 
ATOM      4  C   UNL     1     -12.441  -3.000   0.000  0.00  0.00    +0.005 A 
ATOM      5  C   UNL     1     -11.142  -3.750   0.000  0.00  0.00    +0.044 A 
ATOM      6  C   UNL     1      -9.843  -3.000   0.000  0.00  0.00    +0.124 A 
ATOM      7  N   UNL     1      -8.544  -3.750   0.000  0.00  0.00    -0.282 N 
ATOM      8  H   UNL     1      -8.544  -4.734   0.000  0.00  0.00    +0.155 HD
ENDBRANCH   9   7
BRANCH   9  10
ATOM     10  N   UNL     1      -5.946  -3.750   0.000  0.00  0.00    -0.264 N 
ATOM     11  H   UNL     1      -5.946  -4.734   0.000  0.00  0.00    +0.157 HD
ATOM     12  C   UNL     1      -4.647  -3.000   0.000  0.00  0.00    +0.250 C 
ATOM     13  O   UNL     1      -4.647  -1.500   0.000  0.00  0.00    -0.270 OA
BRANCH  12  14
ATOM     14  C   UNL     1      -3.348  -3.750   0.000  0.00  0.00    +0.037 A 
ATOM     15  C   UNL     1      -3.348  -5.250   0.000  0.00  0.00    +0.013 A 
ATOM     16  C   UNL     1      -2.049  -6.000   0.000  0.00  0.00    +0.001 A 
ATOM     17  C   UNL     1      -0.750  -5.250   0.000  0.00  0.00    +0.000 A 
ATOM     18  C   UNL     1      -0.750  -3.750   0.000  0.00  0.00    +0.001 A 
ATOM     19  C   UNL     1      -2.049  -3.000   0.000  0.00  0.00    +0.013 A 
ENDBRANCH  12  14
ENDBRANCH   9  10
TORSDOF 3