REMARK  Name = 11307
REMARK  7 active torsions:
REMARK  status: ('A' for Active; 'I' for Inactive)
REMARK    1  A    between atoms: N_2  and  C_18
REMARK    2  A    between atoms: N_3  and  C_19
REMARK    3  A    between atoms: N_5  and  C_20
REMARK    4  A    between atoms: C_11  and  C_23
REMARK    5  A    between atoms: C_16  and  O_21
REMARK    6  A    between atoms: O_21  and  C_22
REMARK    7  A    between atoms: C_22  and  C_23
REMARK                            x       y       z     vdW  Elec       q    Type
REMARK                         _______ _______ _______ _____ _____    ______ ____
ROOT
ATOM      1  O   UNL     1       0.750   2.250   0.000  0.00  0.00    -0.246 OA
ATOM      2  C   UNL     1       2.049   3.000   0.000  0.00  0.00    +0.333 A 
ATOM      3  N   UNL     1       3.348   2.250   0.000  0.00  0.00    -0.279 N 
ATOM      4  C   UNL     1       3.348   0.750   0.000  0.00  0.00    +0.155 C 
ATOM      5  C   UNL     1       4.647   3.000   0.000  0.00  0.00    +0.172 A 
ATOM      6  C   UNL     1       4.647   4.500   0.000  0.00  0.00    +0.154 A 
ATOM      7  C   UNL     1       3.348   5.250   0.000  0.00  0.00    +0.282 A 
ATOM      8  O   UNL     1       3.348   6.750   0.000  0.00  0.00    -0.265 OA
ATOM      9  N   UNL     1       6.074   4.963   0.000  0.00  0.00    -0.291 N 
ATOM     10  C   UNL     1       6.537   6.390   0.000  0.00  0.00    +0.154 C 
ATOM     11  C   UNL     1       6.955   3.750   0.000  0.00  0.00    +0.300 A 
ATOM     21  N   UNL     1       6.074   2.537   0.000  0.00  0.00    -0.177 NA
ATOM     22  N   UNL     1       2.049   4.500   0.000  0.00  0.00    -0.262 N 
ATOM     23  C   UNL     1       0.750   5.250   0.000  0.00  0.00    +0.157 C 
ENDROOT
BRANCH  11  12
ATOM     12  O   UNL     1       8.455   3.750   0.000  0.00  0.00    -0.463 OA
BRANCH  12  13
ATOM     13  C   UNL     1       9.205   5.049   0.000  0.00  0.00    +0.237 C 
BRANCH  13  14
ATOM     14  C   UNL     1      10.705   5.049   0.000  0.00  0.00    +0.076 C 
BRANCH  14  15
ATOM     15  C   UNL     1      11.455   3.750   0.000  0.00  0.00    -0.044 A 
ATOM     16  C   UNL     1      10.705   2.451   0.000  0.00  0.00    +0.004 A 
ATOM     17  C   UNL     1      11.455   1.152   0.000  0.00  0.00    +0.000 A 
ATOM     18  C   UNL     1      12.955   1.152   0.000  0.00  0.00    +0.000 A 
ATOM     19  C   UNL     1      13.705   2.451   0.000  0.00  0.00    +0.000 A 
ATOM     20  C   UNL     1      12.955   3.750   0.000  0.00  0.00    +0.004 A 
ENDBRANCH  14  15
ENDBRANCH  13  14
ENDBRANCH  12  13
ENDBRANCH  11  12
TORSDOF 4