REMARK  Name = 143348
REMARK  4 active torsions:
REMARK  status: ('A' for Active; 'I' for Inactive)
REMARK    1  A    between atoms: C_3  and  N_14
REMARK    2  A    between atoms: C_5  and  C_13
REMARK    3  A    between atoms: N_14  and  C_15
REMARK    4  A    between atoms: C_15  and  N_17
REMARK                            x       y       z     vdW  Elec       q    Type
REMARK                         _______ _______ _______ _____ _____    ______ ____
ROOT
ATOM      9  C   UNL     1       0.375   6.649   0.000  0.00  0.00    +0.140 C 
ATOM     10  S   UNL     1      -0.924   7.399   0.000  0.00  0.00    -0.018 S 
ENDROOT
BRANCH   9   7
ATOM      1  N   UNL     1       0.375   9.649   0.000  0.00  0.00    -0.240 NA
ATOM      2  C   UNL     1       0.375  11.150   0.000  0.00  0.00    +0.113 A 
ATOM      3  C   UNL     1       1.674  11.900   0.000  0.00  0.00    +0.020 A 
ATOM      4  C   UNL     1       2.973  11.150   0.000  0.00  0.00    +0.005 A 
ATOM      5  C   UNL     1       2.973   9.649   0.000  0.00  0.00    +0.044 A 
ATOM      6  C   UNL     1       1.674   8.899   0.000  0.00  0.00    +0.124 A 
ATOM      7  N   UNL     1       1.674   7.399   0.000  0.00  0.00    -0.282 N 
ATOM      8  H   UNL     1       2.527   6.907   0.000  0.00  0.00    +0.155 HD
ENDBRANCH   9   7
BRANCH   9  11
ATOM     11  N   UNL     1       0.375   5.149   0.000  0.00  0.00    -0.296 N 
ATOM     12  H   UNL     1       1.228   4.657   0.000  0.00  0.00    +0.154 HD
BRANCH  11  13
ATOM     13  C   UNL     1      -0.924   4.399   0.000  0.00  0.00    +0.036 A 
ATOM     14  C   UNL     1      -0.924   2.900   0.000  0.00  0.00    -0.029 A 
ATOM     15  C   UNL     1       0.375   2.150   0.000  0.00  0.00    +0.045 C 
ATOM     16  C   UNL     1      -2.223   2.150   0.000  0.00  0.00    +0.005 A 
ATOM     17  C   UNL     1      -3.522   2.900   0.000  0.00  0.00    +0.000 A 
ATOM     18  C   UNL     1      -3.522   4.399   0.000  0.00  0.00    +0.002 A 
ATOM     19  C   UNL     1      -2.223   5.149   0.000  0.00  0.00    +0.023 A 
ENDBRANCH  11  13
ENDBRANCH   9  11
TORSDOF 3