REMARK  Name = 1014
REMARK  5 active torsions:
REMARK  status: ('A' for Active; 'I' for Inactive)
REMARK    1  A    between atoms: C_8  and  C_26
REMARK    2  A    between atoms: C_9  and  O_23
REMARK    3  A    between atoms: C_19  and  C_22
REMARK    4  A    between atoms: C_24  and  C_26
REMARK    5  A    between atoms: N_25  and  C_26
REMARK                            x       y       z     vdW  Elec       q    Type
REMARK                         _______ _______ _______ _____ _____    ______ ____
ROOT
ATOM     10  C   UNL     1      -8.819  -0.275   0.000  0.00  0.00    +0.136 C 
ENDROOT
BRANCH  10  11
ATOM     11  C   UNL     1      -7.520  -1.025   0.000  0.00  0.00    +0.021 A 
ATOM     12  C   UNL     1      -7.520  -2.525   0.000  0.00  0.00    +0.010 A 
ATOM     13  C   UNL     1      -6.221  -3.275   0.000  0.00  0.00    +0.010 A 
ATOM     14  C   UNL     1      -4.922  -2.525   0.000  0.00  0.00    +0.004 A 
ATOM     15  C   UNL     1      -3.623  -3.275   0.000  0.00  0.00    +0.011 A 
ATOM     16  C   UNL     1      -2.324  -2.525   0.000  0.00  0.00    +0.020 A 
ATOM     17  C   UNL     1      -2.324  -1.025   0.000  0.00  0.00    +0.111 A 
ATOM     18  N   UNL     1      -3.623  -0.275   0.000  0.00  0.00    -0.251 NA
ATOM     19  C   UNL     1      -4.922  -1.025   0.000  0.00  0.00    +0.113 A 
ATOM     20  C   UNL     1      -6.221  -0.275   0.000  0.00  0.00    +0.148 A 
BRANCH  20  21
ATOM     21  O   UNL     1      -6.221   1.226   0.000  0.00  0.00    -0.504 OA
ATOM     22  H   UNL     1      -5.409   1.694   0.000  0.00  0.00    +0.292 HD
ENDBRANCH  20  21
ENDBRANCH  10  11
BRANCH  10   8
ATOM      1  N   UNL     1     -11.417   1.226   0.000  0.00  0.00    -0.240 NA
ATOM      2  C   UNL     1     -12.716   1.976   0.000  0.00  0.00    +0.113 A 
ATOM      3  C   UNL     1     -14.015   1.226   0.000  0.00  0.00    +0.023 A 
ATOM      4  C   UNL     1     -14.015  -0.275   0.000  0.00  0.00    -0.046 A 
ATOM      5  C   UNL     1     -15.314  -1.025   0.000  0.00  0.00    +0.044 C 
ATOM      6  C   UNL     1     -12.716  -1.025   0.000  0.00  0.00    +0.046 A 
ATOM      7  C   UNL     1     -11.417  -0.275   0.000  0.00  0.00    +0.120 A 
ATOM      8  N   UNL     1     -10.118  -1.025   0.000  0.00  0.00    -0.318 N 
ATOM      9  H   UNL     1     -10.118  -2.009   0.000  0.00  0.00    +0.148 HD
ENDBRANCH  10   8
BRANCH  10  23
ATOM     23  C   UNL     1      -8.819   1.226   0.000  0.00  0.00    -0.023 A 
ATOM     24  C   UNL     1     -10.118   1.976   0.000  0.00  0.00    +0.006 A 
ATOM     25  C   UNL     1     -10.118   3.475   0.000  0.00  0.00    +0.000 A 
ATOM     26  C   UNL     1      -8.819   4.226   0.000  0.00  0.00    +0.000 A 
ATOM     27  C   UNL     1      -7.520   3.475   0.000  0.00  0.00    +0.000 A 
ATOM     28  C   UNL     1      -7.520   1.976   0.000  0.00  0.00    +0.006 A 
ENDBRANCH  10  23
TORSDOF 4