REMARK  Name = 120307
REMARK  1 active torsions:
REMARK  status: ('A' for Active; 'I' for Inactive)
REMARK    1  A    between atoms: C_9  and  C_11
REMARK                            x       y       z     vdW  Elec       q    Type
REMARK                         _______ _______ _______ _____ _____    ______ ____
ROOT
ATOM      7  C   UNL     1       6.221   0.275   0.000  0.00  0.00    +0.143 A 
ATOM      8  N   UNL     1       7.520   1.025   0.000  0.00  0.00    -0.210 NA
ATOM      9  C   UNL     1       8.819   0.275   0.000  0.00  0.00    +0.165 A 
ATOM     10  C   UNL     1       8.819  -1.226   0.000  0.00  0.00    +0.124 A 
ATOM     11  C   UNL     1       7.520  -1.976   0.000  0.00  0.00    +0.264 A 
ATOM     12  O   UNL     1       7.520  -3.475   0.000  0.00  0.00    -0.267 OA
ATOM     13  C   UNL     1      10.245  -1.689   0.000  0.00  0.00    +0.152 A 
ATOM     14  N   UNL     1      10.709  -3.116   0.000  0.00  0.00    -0.341 N 
ATOM     15  H   UNL     1      11.672  -3.320   0.000  0.00  0.00    +0.144 HD
ATOM     16  H   UNL     1      10.050  -3.847   0.000  0.00  0.00    +0.144 HD
ATOM     17  N   UNL     1      11.127  -0.475   0.000  0.00  0.00    -0.157 NA
ATOM     18  N   UNL     1      10.245   0.738   0.000  0.00  0.00    -0.258 N 
ATOM     19  H   UNL     1      10.709   2.165   0.000  0.00  0.00    +0.191 HD
ATOM     20  N   UNL     1       6.221  -1.226   0.000  0.00  0.00    -0.306 N 
ATOM     21  H   UNL     1       5.368  -1.718   0.000  0.00  0.00    +0.170 HD
ENDROOT
BRANCH   7   6
ATOM      1  C   UNL     1       3.623   0.275   0.000  0.00  0.00    +0.011 A 
ATOM      2  C   UNL     1       2.324   1.025   0.000  0.00  0.00    +0.001 A 
ATOM      3  C   UNL     1       2.324   2.525   0.000  0.00  0.00    +0.000 A 
ATOM      4  C   UNL     1       3.623   3.275   0.000  0.00  0.00    +0.001 A 
ATOM      5  C   UNL     1       4.922   2.525   0.000  0.00  0.00    +0.011 A 
ATOM      6  C   UNL     1       4.922   1.025   0.000  0.00  0.00    +0.017 A 
ENDBRANCH   7   6
TORSDOF 1