REMARK  Name = 149312
REMARK  3 active torsions:
REMARK  status: ('A' for Active; 'I' for Inactive)
REMARK    1  A    between atoms: C_11  and  C_19
REMARK    2  A    between atoms: C_12  and  C_20
REMARK    3  A    between atoms: C_15  and  C_20
REMARK                            x       y       z     vdW  Elec       q    Type
REMARK                         _______ _______ _______ _____ _____    ______ ____
ROOT
ATOM      1  O   UNL     1      -7.245  -0.750   0.000  0.00  0.00    -0.619 OA
ATOM      2  N   UNL     1      -7.245  -2.250   0.000  0.00  0.00    -0.157 N 
ATOM      3  C   UNL     1      -8.544  -3.000   0.000  0.00  0.00    +0.292 A 
ATOM      4  C   UNL     1      -8.544  -4.500   0.000  0.00  0.00    +0.292 A 
ATOM      5  C   UNL     1      -9.843  -5.250   0.000  0.00  0.00    +0.086 A 
ATOM      6  C   UNL     1     -11.142  -4.500   0.000  0.00  0.00    +0.007 A 
ATOM      7  C   UNL     1     -11.142  -3.000   0.000  0.00  0.00    +0.007 A 
ATOM      8  N   UNL     1      -7.245  -5.250   0.000  0.00  0.00    -0.157 N 
ATOM      9  O   UNL     1      -7.245  -6.750   0.000  0.00  0.00    -0.619 OA
ATOM     10  C   UNL     1      -5.946  -4.500   0.000  0.00  0.00    +0.268 A 
ATOM     18  C   UNL     1      -9.843  -2.250   0.000  0.00  0.00    +0.086 A 
ATOM     19  C   UNL     1      -5.946  -3.000   0.000  0.00  0.00    +0.261 A 
ATOM     20  C   UNL     1      -4.647  -2.250   0.000  0.00  0.00    +0.130 C 
ENDROOT
BRANCH  10  11
ATOM     11  C   UNL     1      -4.647  -5.250   0.000  0.00  0.00    +0.150 C 
BRANCH  11  12
ATOM     12  C   UNL     1      -3.348  -4.500   0.000  0.00  0.00    -0.037 A 
ATOM     13  C   UNL     1      -2.049  -5.250   0.000  0.00  0.00    +0.004 A 
ATOM     14  C   UNL     1      -0.750  -4.500   0.000  0.00  0.00    +0.000 A 
ATOM     15  C   UNL     1      -0.750  -3.000   0.000  0.00  0.00    +0.000 A 
ATOM     16  C   UNL     1      -2.049  -2.250   0.000  0.00  0.00    +0.000 A 
ATOM     17  C   UNL     1      -3.348  -3.000   0.000  0.00  0.00    +0.004 A 
ENDBRANCH  11  12
ENDBRANCH  10  11
TORSDOF 2