REMARK  Name = 150114
REMARK  7 active torsions:
REMARK  status: ('A' for Active; 'I' for Inactive)
REMARK    1  A    between atoms: N_1  and  C_20
REMARK    2  A    between atoms: C_3  and  C_7
REMARK    3  A    between atoms: C_9  and  C_18
REMARK    4  A    between atoms: C_12  and  C_18
REMARK    5  A    between atoms: C_20  and  C_21
REMARK    6  A    between atoms: C_20  and  C_22
REMARK    7  A    between atoms: C_20  and  C_23
REMARK                            x       y       z     vdW  Elec       q    Type
REMARK                         _______ _______ _______ _____ _____    ______ ____
ROOT
ATOM      1  N   UNL     1       2.272  -4.250   0.000  0.00  0.00    -0.341 N 
ATOM      6  C   UNL     1       1.058  -5.131   0.000  0.00  0.00    +0.098 A 
ATOM      7  C   UNL     1       1.522  -6.558   0.000  0.00  0.00    +0.040 A 
ATOM     16  C   UNL     1       3.022  -6.558   0.000  0.00  0.00    +0.039 A 
ATOM     17  C   UNL     1       3.485  -5.131   0.000  0.00  0.00    +0.050 A 
ENDROOT
BRANCH  17  18
ATOM     18  C   UNL     1       4.912  -4.668   0.000  0.00  0.00    -0.001 A 
ATOM     19  C   UNL     1       6.027  -5.672   0.000  0.00  0.00    +0.010 A 
ATOM     20  C   UNL     1       7.453  -5.208   0.000  0.00  0.00    +0.001 A 
ATOM     21  C   UNL     1       7.765  -3.741   0.000  0.00  0.00    +0.000 A 
ATOM     22  C   UNL     1       6.650  -2.737   0.000  0.00  0.00    +0.001 A 
ATOM     23  C   UNL     1       5.224  -3.200   0.000  0.00  0.00    +0.010 A 
ENDBRANCH  17  18
BRANCH   1   2
ATOM      2  C   UNL     1       2.272  -2.750   0.000  0.00  0.00    +0.037 C 
ATOM      3  C   UNL     1       3.772  -2.750   0.000  0.00  0.00    +0.034 C 
ATOM      4  C   UNL     1       2.272  -1.250   0.000  0.00  0.00    +0.034 C 
ATOM      5  C   UNL     1       0.772  -2.750   0.000  0.00  0.00    +0.034 C 
ENDBRANCH   1   2
BRANCH   7   8
ATOM      8  C   UNL     1       0.640  -7.771   0.000  0.00  0.00    +0.195 C 
ATOM      9  O   UNL     1      -0.852  -7.615   0.000  0.00  0.00    -0.287 OA
BRANCH   8  10
ATOM     10  C   UNL     1       1.250  -9.142   0.000  0.00  0.00    +0.022 A 
ATOM     11  C   UNL     1       0.368 -10.355   0.000  0.00  0.00    +0.012 A 
ATOM     12  C   UNL     1       0.979 -11.726   0.000  0.00  0.00    +0.001 A 
ATOM     13  C   UNL     1       2.470 -11.882   0.000  0.00  0.00    +0.000 A 
ATOM     14  C   UNL     1       3.352 -10.669   0.000  0.00  0.00    +0.001 A 
ATOM     15  C   UNL     1       2.742  -9.299   0.000  0.00  0.00    +0.012 A 
ENDBRANCH   8  10
ENDBRANCH   7   8
TORSDOF 4