REMARK  Name = 133351
REMARK  6 active torsions:
REMARK  status: ('A' for Active; 'I' for Inactive)
REMARK    1  A    between atoms: O_1  and  C_3
REMARK    2  A    between atoms: O_1  and  C_9
REMARK    3  A    between atoms: C_4  and  N_18
REMARK    4  A    between atoms: C_5  and  N_21
REMARK    5  A    between atoms: C_10  and  N_14
REMARK    6  A    between atoms: C_12  and  N_17
REMARK                            x       y       z     vdW  Elec       q    Type
REMARK                         _______ _______ _______ _____ _____    ______ ____
ROOT
ATOM      1  O   UNL     1      -8.169   2.150   0.000  0.00  0.00    -0.456 OA
ENDROOT
BRANCH   1   2
ATOM      2  C   UNL     1      -8.169   3.650   0.000  0.00  0.00    +0.135 A 
ATOM      3  C   UNL     1      -9.468   4.399   0.000  0.00  0.00    +0.048 A 
ATOM      4  C   UNL     1      -9.468   5.899   0.000  0.00  0.00    +0.033 A 
ATOM      5  C   UNL     1      -8.169   6.649   0.000  0.00  0.00    +0.103 A 
ATOM      9  C   UNL     1      -6.870   5.899   0.000  0.00  0.00    +0.297 A 
ATOM     13  C   UNL     1      -6.870   4.399   0.000  0.00  0.00    +0.132 A 
BRANCH   5   6
ATOM      6  N   UNL     1      -8.169   8.149   0.000  0.00  0.00    -0.353 N 
ATOM      7  H   UNL     1      -9.022   8.642   0.000  0.00  0.00    +0.143 HD
ATOM      8  H   UNL     1      -7.317   8.642   0.000  0.00  0.00    +0.143 HD
ENDBRANCH   5   6
BRANCH   9  10
ATOM     10  N   UNL     1      -5.571   6.649   0.000  0.00  0.00    +0.082 N 
ATOM     11  O   UNL     1      -4.272   5.899   0.000  0.00  0.00    +0.042 OA
ATOM     12  O   UNL     1      -5.571   8.149   0.000  0.00  0.00    -0.576 OA
ENDBRANCH   9  10
ENDBRANCH   1   2
BRANCH   1  14
ATOM     14  C   UNL     1      -6.870   1.400   0.000  0.00  0.00    +0.135 A 
ATOM     15  C   UNL     1      -6.870  -0.101   0.000  0.00  0.00    +0.048 A 
ATOM     16  C   UNL     1      -5.571  -0.851   0.000  0.00  0.00    +0.033 A 
ATOM     17  C   UNL     1      -4.272  -0.101   0.000  0.00  0.00    +0.103 A 
ATOM     21  C   UNL     1      -4.272   1.400   0.000  0.00  0.00    +0.297 A 
ATOM     25  C   UNL     1      -5.571   2.150   0.000  0.00  0.00    +0.132 A 
BRANCH  17  18
ATOM     18  N   UNL     1      -2.973  -0.851   0.000  0.00  0.00    -0.353 N 
ATOM     19  H   UNL     1      -2.120  -0.358   0.000  0.00  0.00    +0.143 HD
ATOM     20  H   UNL     1      -2.973  -1.835   0.000  0.00  0.00    +0.143 HD
ENDBRANCH  17  18
BRANCH  21  22
ATOM     22  N   UNL     1      -2.973   2.150   0.000  0.00  0.00    +0.082 N 
ATOM     23  O   UNL     1      -2.973   3.650   0.000  0.00  0.00    +0.042 OA
ATOM     24  O   UNL     1      -1.674   1.400   0.000  0.00  0.00    -0.576 OA
ENDBRANCH  21  22
ENDBRANCH   1  14
TORSDOF 6