REMARK  Name = 109084
REMARK  4 active torsions:
REMARK  status: ('A' for Active; 'I' for Inactive)
REMARK    1  A    between atoms: N_2  and  C_16
REMARK    2  A    between atoms: C_11  and  O_14
REMARK    3  A    between atoms: O_14  and  C_15
REMARK    4  A    between atoms: C_15  and  C_16
REMARK                            x       y       z     vdW  Elec       q    Type
REMARK                         _______ _______ _______ _____ _____    ______ ____
ROOT
ATOM      1  N   UNL     1      -5.297  -5.424   0.000  0.00  0.00    -0.213 NA
ATOM      2  C   UNL     1      -6.596  -6.174   0.000  0.00  0.00    +0.075 A 
ATOM      3  C   UNL     1      -6.596  -7.674   0.000  0.00  0.00    +0.001 A 
ATOM      4  C   UNL     1      -7.895  -8.424   0.000  0.00  0.00    +0.010 A 
ATOM      5  C   UNL     1      -9.194  -7.674   0.000  0.00  0.00    +0.001 A 
ATOM      6  C   UNL     1      -9.194  -6.174   0.000  0.00  0.00    +0.002 A 
ATOM      7  C   UNL     1      -5.297  -8.424   0.000  0.00  0.00    +0.015 A 
ATOM      8  C   UNL     1      -3.998  -7.674   0.000  0.00  0.00    +0.068 A 
ATOM      9  C   UNL     1      -7.895  -5.424   0.000  0.00  0.00    +0.028 A 
ATOM     10  C   UNL     1      -3.998  -6.174   0.000  0.00  0.00    +0.215 A 
ENDROOT
BRANCH  10  11
ATOM     11  O   UNL     1      -2.699  -5.424   0.000  0.00  0.00    -0.475 OA
BRANCH  11  12
ATOM     12  C   UNL     1      -2.699  -3.924   0.000  0.00  0.00    +0.246 C 
BRANCH  12  13
ATOM     13  C   UNL     1      -1.400  -3.174   0.000  0.00  0.00    +0.125 C 
BRANCH  13  14
ATOM     14  N   UNL     1      -0.101  -3.924   0.000  0.00  0.00    -0.297 NA
ATOM     15  C   UNL     1       0.649  -5.223   0.000  0.00  0.00    +0.100 C 
ATOM     16  C   UNL     1       1.400  -3.924   0.000  0.00  0.00    +0.100 C 
ENDBRANCH  13  14
ENDBRANCH  12  13
ENDBRANCH  11  12
ENDBRANCH  10  11
TORSDOF 4