REMARK  Name = 19803
REMARK  12 active torsions:
REMARK  status: ('A' for Active; 'I' for Inactive)
REMARK    1  A    between atoms: C_1  and  O_28
REMARK    2  A    between atoms: C_4  and  O_31
REMARK    3  A    between atoms: C_5  and  C_6
REMARK    4  A    between atoms: C_8  and  O_25
REMARK    5  A    between atoms: C_9  and  O_29
REMARK    6  A    between atoms: C_11  and  O_23
REMARK    7  A    between atoms: C_15  and  O_26
REMARK    8  A    between atoms: C_16  and  C_32
REMARK    9  A    between atoms: C_17  and  O_33
REMARK   10  A    between atoms: C_18  and  O_23
REMARK   11  A    between atoms: C_19  and  O_30
REMARK   12  A    between atoms: C_20  and  O_27
REMARK                            x       y       z     vdW  Elec       q    Type
REMARK                         _______ _______ _______ _____ _____    ______ ____
ROOT
ATOM     12  C   UNL     1       0.201  12.241   0.000  0.00  0.00    +0.181 A 
ATOM     13  C   UNL     1      -0.549  10.942   0.000  0.00  0.00    +0.214 A 
ATOM     14  C   UNL     1      -2.049  10.942   0.000  0.00  0.00    +0.238 A 
ATOM     15  O   UNL     1      -2.799   9.643   0.000  0.00  0.00    -0.283 OA
ATOM     16  C   UNL     1      -2.799  12.241   0.000  0.00  0.00    +0.109 A 
ATOM     17  C   UNL     1      -4.299  12.241   0.000  0.00  0.00    +0.135 A 
ATOM     20  C   UNL     1      -5.049  13.540   0.000  0.00  0.00    +0.091 A 
ATOM     21  C   UNL     1      -4.299  14.839   0.000  0.00  0.00    +0.124 A 
ATOM     24  C   UNL     1      -2.799  14.839   0.000  0.00  0.00    +0.092 A 
ATOM     25  C   UNL     1      -2.049  13.540   0.000  0.00  0.00    +0.147 A 
ATOM     40  O   UNL     1      -0.549  13.540   0.000  0.00  0.00    -0.451 OA
ENDROOT
BRANCH  12  11
ATOM      1  C   UNL     1       3.951  13.540   0.000  0.00  0.00    +0.163 A 
ATOM      4  C   UNL     1       4.701  12.241   0.000  0.00  0.00    +0.201 A 
ATOM      7  C   UNL     1       3.951  10.942   0.000  0.00  0.00    +0.163 A 
ATOM     10  C   UNL     1       2.451  10.942   0.000  0.00  0.00    +0.061 A 
ATOM     11  C   UNL     1       1.701  12.241   0.000  0.00  0.00    +0.028 A 
ATOM     41  C   UNL     1       2.451  13.540   0.000  0.00  0.00    +0.061 A 
BRANCH   1   2
ATOM      2  O   UNL     1       4.701  14.839   0.000  0.00  0.00    -0.503 OA
ATOM      3  H   UNL     1       5.638  14.839   0.000  0.00  0.00    +0.292 HD
ENDBRANCH   1   2
BRANCH   4   5
ATOM      5  O   UNL     1       6.201  12.241   0.000  0.00  0.00    -0.501 OA
ATOM      6  H   UNL     1       6.670  11.430   0.000  0.00  0.00    +0.292 HD
ENDBRANCH   4   5
BRANCH   7   8
ATOM      8  O   UNL     1       4.701   9.643   0.000  0.00  0.00    -0.503 OA
ATOM      9  H   UNL     1       4.233   8.832   0.000  0.00  0.00    +0.292 HD
ENDBRANCH   7   8
ENDBRANCH  12  11
BRANCH  17  18
ATOM     18  O   UNL     1      -5.049  10.942   0.000  0.00  0.00    -0.506 OA
ATOM     19  H   UNL     1      -5.986  10.942   0.000  0.00  0.00    +0.292 HD
ENDBRANCH  17  18
BRANCH  21  22
ATOM     22  O   UNL     1      -5.049  16.138   0.000  0.00  0.00    -0.507 OA
ATOM     23  H   UNL     1      -4.580  16.950   0.000  0.00  0.00    +0.292 HD
ENDBRANCH  21  22
BRANCH  13  26
ATOM     26  O   UNL     1       0.201   9.643   0.000  0.00  0.00    -0.453 OA
BRANCH  26  27
ATOM     27  C   UNL     1      -0.549   8.344   0.000  0.00  0.00    +0.339 C 
ATOM     28  C   UNL     1      -2.049   8.344   0.000  0.00  0.00    +0.214 C 
ATOM     31  C   UNL     1      -2.799   7.045   0.000  0.00  0.00    +0.180 C 
ATOM     34  C   UNL     1      -2.049   5.746   0.000  0.00  0.00    +0.174 C 
ATOM     37  C   UNL     1      -0.549   5.746   0.000  0.00  0.00    +0.150 C 
ATOM     38  C   UNL     1       0.201   4.447   0.000  0.00  0.00    +0.041 C 
ATOM     39  O   UNL     1       0.201   7.045   0.000  0.00  0.00    -0.334 OA
BRANCH  28  29
ATOM     29  O   UNL     1      -1.299   7.045   0.000  0.00  0.00    -0.383 OA
ATOM     30  H   UNL     1      -1.784   6.205   0.000  0.00  0.00    +0.210 HD
ENDBRANCH  28  29
BRANCH  31  32
ATOM     32  O   UNL     1      -1.299   7.045   0.000  0.00  0.00    -0.386 OA
ATOM     33  H   UNL     1      -0.814   6.205   0.000  0.00  0.00    +0.210 HD
ENDBRANCH  31  32
BRANCH  34  35
ATOM     35  O   UNL     1      -2.799   4.447   0.000  0.00  0.00    -0.387 OA
ATOM     36  H   UNL     1      -3.769   4.447   0.000  0.00  0.00    +0.210 HD
ENDBRANCH  34  35
ENDBRANCH  26  27
ENDBRANCH  13  26
TORSDOF 11