REMARK  Name = 164208
REMARK  7 active torsions:
REMARK  status: ('A' for Active; 'I' for Inactive)
REMARK    1  A    between atoms: C_2  and  N_7
REMARK    2  A    between atoms: C_4  and  C_8
REMARK    3  A    between atoms: C_8  and  C_9
REMARK    4  A    between atoms: N_12  and  C_13
REMARK    5  A    between atoms: C_13  and  C_14
REMARK    6  A    between atoms: C_14  and  C_15
REMARK    7  A    between atoms: C_15  and  C_16
REMARK                            x       y       z     vdW  Elec       q    Type
REMARK                         _______ _______ _______ _____ _____    ______ ____
ROOT
ATOM      3  N   UNL     1      -4.073  -4.397   0.000  0.00  0.00    -0.269 N 
ATOM      4  H   UNL     1      -4.638  -3.590   0.000  0.00  0.00    +0.156 HD
ATOM      5  C   UNL     1      -2.573  -4.397   0.000  0.00  0.00    +0.304 C 
ATOM      6  N   UNL     1      -1.823  -5.696   0.000  0.00  0.00    -0.299 N 
ATOM      7  H   UNL     1      -2.315  -6.548   0.000  0.00  0.00    +0.150 HD
ATOM     12  O   UNL     1      -1.823  -3.098   0.000  0.00  0.00    -0.253 OA
ENDROOT
BRANCH   3   2
ATOM      1  C   UNL     1      -3.622  -6.955   0.000  0.00  0.00    +0.023 A 
ATOM      2  C   UNL     1      -4.586  -5.806   0.000  0.00  0.00    +0.038 A 
ATOM     13  C   UNL     1      -6.063  -6.067   0.000  0.00  0.00    -0.026 A 
ATOM     16  C   UNL     1      -6.576  -7.476   0.000  0.00  0.00    +0.005 A 
ATOM     17  C   UNL     1      -5.612  -8.625   0.000  0.00  0.00    +0.000 A 
ATOM     18  C   UNL     1      -4.135  -8.365   0.000  0.00  0.00    +0.002 A 
BRANCH  13  14
ATOM     14  C   UNL     1      -7.027  -4.918   0.000  0.00  0.00    +0.033 C 
ATOM     15  C   UNL     1      -6.514  -3.508   0.000  0.00  0.00    +0.009 C 
ENDBRANCH  13  14
ENDBRANCH   3   2
BRANCH   6   8
ATOM      8  C   UNL     1      -0.323  -5.696   0.000  0.00  0.00    +0.106 C 
BRANCH   8   9
ATOM      9  C   UNL     1       0.427  -4.397   0.000  0.00  0.00    +0.018 C 
BRANCH   9  10
ATOM     10  C   UNL     1       1.927  -4.397   0.000  0.00  0.00    -0.002 C 
ATOM     11  C   UNL     1       2.677  -5.696   0.000  0.00  0.00    +0.004 C 
ENDBRANCH   9  10
ENDBRANCH   8   9
ENDBRANCH   6   8
TORSDOF 5