REMARK  Name = 106261
REMARK  5 active torsions:
REMARK  status: ('A' for Active; 'I' for Inactive)
REMARK    1  A    between atoms: C_3  and  C_8
REMARK    2  A    between atoms: C_5  and  C_13
REMARK    3  A    between atoms: C_7  and  C_9
REMARK    4  A    between atoms: N_10  and  O_11
REMARK    5  A    between atoms: O_11  and  C_12
REMARK                            x       y       z     vdW  Elec       q    Type
REMARK                         _______ _______ _______ _____ _____    ______ ____
ROOT
ATOM      1  O   UNL     1      -8.544  -3.750   0.000  0.00  0.00    -0.287 OA
ATOM      2  C   UNL     1      -7.245  -3.000   0.000  0.00  0.00    +0.185 C 
ATOM      3  C   UNL     1      -5.946  -3.750   0.000  0.00  0.00    +0.001 C 
ATOM      4  C   UNL     1      -5.946  -5.250   0.000  0.00  0.00    +0.048 C 
ATOM      5  C   UNL     1      -4.647  -3.000   0.000  0.00  0.00    -0.015 C 
ATOM      6  C   UNL     1      -3.348  -3.750   0.000  0.00  0.00    +0.046 C 
ATOM      7  C   UNL     1      -4.647  -1.500   0.000  0.00  0.00    +0.106 C 
ATOM      8  N   UNL     1      -3.348  -0.750   0.000  0.00  0.00    -0.085 NA
ATOM     11  C   UNL     1      -5.946  -0.750   0.000  0.00  0.00    +0.038 C 
ATOM     12  C   UNL     1      -7.245  -1.500   0.000  0.00  0.00    -0.001 C 
ATOM     13  C   UNL     1      -8.544  -0.750   0.000  0.00  0.00    +0.048 C 
ENDROOT
BRANCH   8   9
ATOM      9  O   UNL     1      -2.049  -1.500   0.000  0.00  0.00    -0.397 OA
ATOM     10  C   UNL     1      -0.750  -0.750   0.000  0.00  0.00    +0.313 C 
ENDBRANCH   8   9
TORSDOF 1