REMARK  Name = 153792
REMARK  4 active torsions:
REMARK  status: ('A' for Active; 'I' for Inactive)
REMARK    1  A    between atoms: C_3  and  N_19
REMARK    2  A    between atoms: C_4  and  C_20
REMARK    3  A    between atoms: C_8  and  N_15
REMARK    4  A    between atoms: C_10  and  C_13
REMARK                            x       y       z     vdW  Elec       q    Type
REMARK                         _______ _______ _______ _____ _____    ______ ____
ROOT
ATOM      3  N   UNL     1       6.221  -4.774   0.000  0.00  0.00    -0.269 N 
ATOM      4  H   UNL     1       5.368  -5.267   0.000  0.00  0.00    +0.156 HD
ATOM      5  C   UNL     1       6.221  -3.275   0.000  0.00  0.00    +0.308 C 
ATOM      6  O   UNL     1       7.520  -2.525   0.000  0.00  0.00    -0.252 OA
ATOM      7  N   UNL     1       4.922  -2.525   0.000  0.00  0.00    -0.268 N 
ATOM      8  H   UNL     1       4.069  -3.017   0.000  0.00  0.00    +0.156 HD
ENDROOT
BRANCH   3   2
ATOM      1  C   UNL     1       8.819  -4.774   0.000  0.00  0.00    +0.023 A 
ATOM      2  C   UNL     1       7.520  -5.524   0.000  0.00  0.00    +0.035 A 
ATOM     20  C   UNL     1       7.520  -7.024   0.000  0.00  0.00    +0.023 A 
ATOM     21  C   UNL     1       8.819  -7.774   0.000  0.00  0.00    +0.005 A 
ATOM     22  C   UNL     1      10.118  -7.024   0.000  0.00  0.00    -0.050 A 
ATOM     23  C   UNL     1      11.417  -7.774   0.000  0.00  0.00    +0.044 C 
ATOM     24  C   UNL     1      10.118  -5.524   0.000  0.00  0.00    +0.005 A 
ENDBRANCH   3   2
BRANCH   7   9
ATOM      9  C   UNL     1       4.922  -1.025   0.000  0.00  0.00    +0.047 A 
ATOM     10  C   UNL     1       3.623  -0.275   0.000  0.00  0.00    +0.058 A 
ATOM     16  C   UNL     1       3.623   1.226   0.000  0.00  0.00    +0.015 A 
ATOM     17  C   UNL     1       4.922   1.976   0.000  0.00  0.00    +0.001 A 
ATOM     18  C   UNL     1       6.221   1.226   0.000  0.00  0.00    +0.002 A 
ATOM     19  C   UNL     1       6.221  -0.275   0.000  0.00  0.00    +0.024 A 
BRANCH  10  11
ATOM     11  C   UNL     1       2.324  -1.025   0.000  0.00  0.00    +0.243 C 
ATOM     12  N   UNL     1       1.025  -0.275   0.000  0.00  0.00    -0.325 N 
ATOM     13  H   UNL     1       0.172  -0.767   0.000  0.00  0.00    +0.145 HD
ATOM     14  H   UNL     1       1.024   0.710   0.000  0.00  0.00    +0.145 HD
ATOM     15  O   UNL     1       2.324  -2.525   0.000  0.00  0.00    -0.270 OA
ENDBRANCH  10  11
ENDBRANCH   7   9
TORSDOF 3