REMARK  Name = 135412
REMARK  9 active torsions:
REMARK  status: ('A' for Active; 'I' for Inactive)
REMARK    1  A    between atoms: C_1  and  C_19
REMARK    2  A    between atoms: C_3  and  C_6
REMARK    3  A    between atoms: C_5  and  C_18
REMARK    4  A    between atoms: C_7  and  C_13
REMARK    5  A    between atoms: C_9  and  C_17
REMARK    6  A    between atoms: C_11  and  C_20
REMARK    7  A    between atoms: C_12  and  C_14
REMARK    8  A    between atoms: C_13  and  C_15
REMARK    9  A    between atoms: C_19  and  C_21
REMARK                            x       y       z     vdW  Elec       q    Type
REMARK                         _______ _______ _______ _____ _____    ______ ____
ROOT
ATOM      1  C   UNL     1       2.728  -7.276   0.000  0.00  0.00    -0.026 A 
ATOM      5  C   UNL     1       4.027  -6.526   0.000  0.00  0.00    +0.005 A 
ATOM      6  C   UNL     1       4.027  -5.026   0.000  0.00  0.00    +0.004 A 
ATOM      7  C   UNL     1       2.728  -4.276   0.000  0.00  0.00    -0.047 A 
ATOM      8  C   UNL     1       2.728  -2.776   0.000  0.00  0.00    +0.044 C 
ATOM      9  C   UNL     1       1.429  -5.026   0.000  0.00  0.00    -0.040 A 
ATOM     10  C   UNL     1       0.129  -4.276   0.000  0.00  0.00    +0.044 C 
ATOM     11  C   UNL     1       1.429  -6.526   0.000  0.00  0.00    -0.010 A 
ENDROOT
BRANCH  11  12
ATOM     12  C   UNL     1       0.130  -7.276   0.000  0.00  0.00    -0.010 A 
ATOM     13  C   UNL     1       0.130  -8.776   0.000  0.00  0.00    -0.040 A 
ATOM     14  C   UNL     1       1.429  -9.526   0.000  0.00  0.00    +0.044 C 
ATOM     15  C   UNL     1      -1.170  -9.526   0.000  0.00  0.00    -0.047 A 
ATOM     16  C   UNL     1      -1.170 -11.026   0.000  0.00  0.00    +0.044 C 
ATOM     17  C   UNL     1      -2.469  -8.776   0.000  0.00  0.00    +0.004 A 
ATOM     18  C   UNL     1      -2.469  -7.276   0.000  0.00  0.00    +0.005 A 
ATOM     19  C   UNL     1      -1.170  -6.526   0.000  0.00  0.00    -0.026 A 
BRANCH  19  20
ATOM     20  C   UNL     1      -1.170  -5.026   0.000  0.00  0.00    +0.154 C 
BRANCH  20  21
ATOM     21  C   UNL     1      -2.469  -4.276   0.000  0.00  0.00    +0.067 C 
ATOM     22  N   UNL     1      -3.768  -3.526   0.000  0.00  0.00    -0.196 NA
ENDBRANCH  20  21
ENDBRANCH  19  20
ENDBRANCH  11  12
BRANCH   1   2
ATOM      2  C   UNL     1       2.728  -8.776   0.000  0.00  0.00    +0.154 C 
BRANCH   2   3
ATOM      3  C   UNL     1       4.027  -9.526   0.000  0.00  0.00    +0.067 C 
ATOM      4  N   UNL     1       5.326 -10.276   0.000  0.00  0.00    -0.196 NA
ENDBRANCH   2   3
ENDBRANCH   1   2
TORSDOF 5