REMARK  Name = 19141
REMARK  4 active torsions:
REMARK  status: ('A' for Active; 'I' for Inactive)
REMARK    1  A    between atoms: N_4  and  C_19
REMARK    2  A    between atoms: C_6  and  C_18
REMARK    3  A    between atoms: C_9  and  C_20
REMARK    4  A    between atoms: C_11  and  N_17
REMARK                            x       y       z     vdW  Elec       q    Type
REMARK                         _______ _______ _______ _____ _____    ______ ____
ROOT
ATOM      1 CL   UNL     1      -4.922 -10.025   0.000  0.00  0.00    -0.041 Cl
ATOM      2  C   UNL     1      -3.623  -9.274   0.000  0.00  0.00    +0.226 A 
ATOM      3  N   UNL     1      -2.324 -10.025   0.000  0.00  0.00    -0.196 NA
ATOM      4  C   UNL     1      -1.025  -9.274   0.000  0.00  0.00    +0.184 A 
ATOM      5  C   UNL     1      -1.025  -7.774   0.000  0.00  0.00    +0.128 A 
ATOM      6  C   UNL     1      -2.324  -7.024   0.000  0.00  0.00    +0.154 A 
ATOM      7  N   UNL     1      -2.324  -5.524   0.000  0.00  0.00    -0.297 N 
ATOM      8  H   UNL     1      -1.517  -4.960   0.000  0.00  0.00    +0.154 HD
ATOM     17  N   UNL     1       0.402  -7.311   0.000  0.00  0.00    -0.329 N 
ATOM     18  C   UNL     1       0.866  -5.884   0.000  0.00  0.00    +0.150 C 
ATOM     19  C   UNL     1       1.284  -8.524   0.000  0.00  0.00    +0.202 A 
ATOM     20  N   UNL     1       0.402  -9.738   0.000  0.00  0.00    -0.216 NA
ATOM     21  N   UNL     1      -3.623  -7.774   0.000  0.00  0.00    -0.200 NA
ENDROOT
BRANCH   7   9
ATOM      9  C   UNL     1      -3.733  -5.011   0.000  0.00  0.00    +0.035 A 
ATOM     10  C   UNL     1      -4.882  -5.976   0.000  0.00  0.00    +0.024 A 
ATOM     11  C   UNL     1      -6.292  -5.463   0.000  0.00  0.00    +0.005 A 
ATOM     12  C   UNL     1      -6.552  -3.985   0.000  0.00  0.00    -0.050 A 
ATOM     13  C   UNL     1      -7.962  -3.472   0.000  0.00  0.00    +0.044 C 
ATOM     14  C   UNL     1      -5.403  -3.021   0.000  0.00  0.00    +0.008 A 
ATOM     15  C   UNL     1      -3.994  -3.534   0.000  0.00  0.00    -0.029 A 
ATOM     16  C   UNL     1      -2.845  -2.570   0.000  0.00  0.00    +0.045 C 
ENDBRANCH   7   9
TORSDOF 1