REMARK  Name = 13974
REMARK  3 active torsions:
REMARK  status: ('A' for Active; 'I' for Inactive)
REMARK    1  A    between atoms: N_1  and  C_8
REMARK    2  A    between atoms: N_2  and  C_9
REMARK    3  A    between atoms: C_17  and  N_19
REMARK                            x       y       z     vdW  Elec       q    Type
REMARK                         _______ _______ _______ _____ _____    ______ ____
ROOT
ATOM      9  C   UNL     1       6.221  -1.226   0.000  0.00  0.00    +0.094 A 
ATOM     10  C   UNL     1       7.520  -1.976   0.000  0.00  0.00    +0.011 A 
ATOM     11  C   UNL     1       7.520  -3.475   0.000  0.00  0.00    +0.011 A 
ATOM     12  C   UNL     1       8.819  -4.226   0.000  0.00  0.00    +0.001 A 
ATOM     13  C   UNL     1      10.118  -3.475   0.000  0.00  0.00    +0.001 A 
ATOM     14  C   UNL     1      10.118  -1.976   0.000  0.00  0.00    +0.010 A 
ATOM     15  C   UNL     1       8.819  -1.226   0.000  0.00  0.00    +0.005 A 
ATOM     16  C   UNL     1       8.819   0.275   0.000  0.00  0.00    +0.032 A 
ATOM     20  C   UNL     1       7.520   1.025   0.000  0.00  0.00    +0.025 A 
ATOM     21  C   UNL     1       6.221   0.275   0.000  0.00  0.00    +0.032 A 
ENDROOT
BRANCH  16  17
ATOM     17  N   UNL     1      10.118   1.025   0.000  0.00  0.00    -0.357 N 
ATOM     18  H   UNL     1      10.118   2.009   0.000  0.00  0.00    +0.142 HD
ATOM     19  H   UNL     1      10.970   0.532   0.000  0.00  0.00    +0.142 HD
ENDBRANCH  16  17
BRANCH   9   8
ATOM      1  N   UNL     1       3.623  -1.226   0.000  0.00  0.00    -0.149 NA
ATOM      8  N   UNL     1       4.922  -1.976   0.000  0.00  0.00    -0.149 NA
BRANCH   1   2
ATOM      2  C   UNL     1       2.324  -1.976   0.000  0.00  0.00    +0.086 A 
ATOM      3  C   UNL     1       2.324  -3.475   0.000  0.00  0.00    +0.029 A 
ATOM      4  C   UNL     1       1.025  -4.226   0.000  0.00  0.00    +0.002 A 
ATOM      5  C   UNL     1      -0.275  -3.475   0.000  0.00  0.00    +0.000 A 
ATOM      6  C   UNL     1      -0.275  -1.976   0.000  0.00  0.00    +0.002 A 
ATOM      7  C   UNL     1       1.025  -1.226   0.000  0.00  0.00    +0.029 A 
ENDBRANCH   1   2
ENDBRANCH   9   8
TORSDOF 3