REMARK  Name = 164991
REMARK  4 active torsions:
REMARK  status: ('A' for Active; 'I' for Inactive)
REMARK    1  A    between atoms: S_1  and  C_9
REMARK    2  A    between atoms: S_1  and  C_17
REMARK    3  A    between atoms: N_3  and  C_12
REMARK    4  A    between atoms: C_19  and  N_23
REMARK                            x       y       z     vdW  Elec       q    Type
REMARK                         _______ _______ _______ _____ _____    ______ ____
ROOT
ATOM     11  C   UNL     1      -8.320  -2.741   0.000  0.00  0.00    +0.147 C 
ATOM     12  C   UNL     1      -7.316  -3.856   0.000  0.00  0.00    +0.240 C 
ATOM     13  O   UNL     1      -7.628  -5.323   0.000  0.00  0.00    -0.274 OA
ATOM     14  N   UNL     1      -5.946  -3.245   0.000  0.00  0.00    -0.209 N 
ATOM     23  C   UNL     1      -6.103  -1.754   0.000  0.00  0.00    +0.228 C 
ATOM     24  O   UNL     1      -4.988  -0.750   0.000  0.00  0.00    -0.275 OA
ATOM     25  C   UNL     1      -7.570  -1.442   0.000  0.00  0.00    +0.120 C 
ENDROOT
BRANCH  14  15
ATOM     15  C   UNL     1      -4.647  -3.995   0.000  0.00  0.00    +0.045 A 
ATOM     16  C   UNL     1      -4.647  -5.495   0.000  0.00  0.00    +0.025 A 
ATOM     17  C   UNL     1      -3.348  -6.245   0.000  0.00  0.00    +0.023 A 
ATOM     18  C   UNL     1      -2.049  -5.495   0.000  0.00  0.00    +0.059 A 
ATOM     19  C   UNL     1      -2.049  -3.995   0.000  0.00  0.00    +0.061 A 
ATOM     20 CL   UNL     1      -0.750  -3.245   0.000  0.00  0.00    -0.082 Cl
ATOM     21 CL   UNL     1      -0.750  -6.245   0.000  0.00  0.00    -0.082 Cl
ATOM     22  C   UNL     1      -3.348  -3.245   0.000  0.00  0.00    +0.045 A 
ENDBRANCH  14  15
BRANCH  11   1
ATOM      1  S   UNL     1      -9.812  -2.898   0.000  0.00  0.00    -0.110 S 
BRANCH   1   2
ATOM      2  C   UNL     1     -10.694  -1.684   0.000  0.00  0.00    +0.029 A 
ATOM      3  C   UNL     1     -12.185  -1.841   0.000  0.00  0.00    +0.016 A 
ATOM      4  C   UNL     1     -13.067  -0.627   0.000  0.00  0.00    +0.001 A 
ATOM      5  C   UNL     1     -12.457   0.743   0.000  0.00  0.00    +0.002 A 
ATOM      6  C   UNL     1     -10.965   0.900   0.000  0.00  0.00    +0.024 A 
ATOM      7  C   UNL     1     -10.084  -0.314   0.000  0.00  0.00    +0.038 A 
BRANCH   7   8
ATOM      8  N   UNL     1      -8.592  -0.157   0.000  0.00  0.00    -0.357 N 
ATOM      9  H   UNL     1      -8.191   0.742   0.000  0.00  0.00    +0.142 HD
ATOM     10  H   UNL     1      -8.013  -0.953   0.000  0.00  0.00    +0.142 HD
ENDBRANCH   7   8
ENDBRANCH   1   2
ENDBRANCH  11   1
TORSDOF 4