REMARK  Name = 105798
REMARK  8 active torsions:
REMARK  status: ('A' for Active; 'I' for Inactive)
REMARK    1  A    between atoms: C_3  and  O_20
REMARK    2  A    between atoms: C_4  and  N_21
REMARK    3  A    between atoms: C_9  and  O_17
REMARK    4  A    between atoms: C_11  and  N_13
REMARK    5  A    between atoms: C_14  and  C_16
REMARK    6  A    between atoms: O_17  and  C_18
REMARK    7  A    between atoms: C_18  and  O_20
REMARK    8  A    between atoms: C_22  and  C_24
REMARK                            x       y       z     vdW  Elec       q    Type
REMARK                         _______ _______ _______ _____ _____    ______ ____
ROOT
ATOM      4  C   UNL     1      -2.049   5.250   0.000  0.00  0.00    +0.521 C 
ATOM      5  O   UNL     1      -0.750   6.000   0.000  0.00  0.00    -0.202 OA
ENDROOT
BRANCH   4   3
ATOM      3  O   UNL     1      -3.348   6.000   0.000  0.00  0.00    -0.395 OA
BRANCH   3   2
ATOM      1  C   UNL     1      -4.647   8.250   0.000  0.00  0.00    +0.048 A 
ATOM      2  C   UNL     1      -3.348   7.500   0.000  0.00  0.00    +0.135 A 
ATOM     18  C   UNL     1      -2.049   8.250   0.000  0.00  0.00    +0.048 A 
ATOM     19  C   UNL     1      -2.049   9.750   0.000  0.00  0.00    +0.027 A 
ATOM     20  C   UNL     1      -3.348  10.500   0.000  0.00  0.00    +0.034 A 
ATOM     26  C   UNL     1      -4.647   9.750   0.000  0.00  0.00    +0.027 A 
BRANCH  20  21
ATOM     21  N   UNL     1      -3.348  12.000   0.000  0.00  0.00    -0.286 N 
ATOM     22  H   UNL     1      -2.495  12.492   0.000  0.00  0.00    +0.155 HD
ATOM     23  C   UNL     1      -4.647  12.750   0.000  0.00  0.00    +0.214 C 
ATOM     24  C   UNL     1      -5.946  12.000   0.000  0.00  0.00    +0.109 C 
ATOM     25  O   UNL     1      -4.647  14.250   0.000  0.00  0.00    -0.276 OA
ENDBRANCH  20  21
ENDBRANCH   3   2
ENDBRANCH   4   3
BRANCH   4   6
ATOM      6  O   UNL     1      -2.049   3.750   0.000  0.00  0.00    -0.395 OA
BRANCH   6   7
ATOM      7  C   UNL     1      -3.348   3.000   0.000  0.00  0.00    +0.135 A 
ATOM      8  C   UNL     1      -3.348   1.500   0.000  0.00  0.00    +0.048 A 
ATOM      9  C   UNL     1      -4.647   0.750   0.000  0.00  0.00    +0.027 A 
ATOM     10  C   UNL     1      -5.946   1.500   0.000  0.00  0.00    +0.034 A 
ATOM     16  C   UNL     1      -5.946   3.000   0.000  0.00  0.00    +0.027 A 
ATOM     17  C   UNL     1      -4.647   3.750   0.000  0.00  0.00    +0.048 A 
BRANCH  10  11
ATOM     11  N   UNL     1      -7.245   0.750   0.000  0.00  0.00    -0.286 N 
ATOM     12  H   UNL     1      -7.245  -0.234   0.000  0.00  0.00    +0.155 HD
ATOM     13  C   UNL     1      -8.544   1.500   0.000  0.00  0.00    +0.214 C 
ATOM     14  C   UNL     1      -8.544   3.000   0.000  0.00  0.00    +0.109 C 
ATOM     15  O   UNL     1      -9.843   0.750   0.000  0.00  0.00    -0.276 OA
ENDBRANCH  10  11
ENDBRANCH   6   7
ENDBRANCH   4   6
TORSDOF 6