REMARK  Name = 123458
REMARK  0 active torsions:
REMARK  status: ('A' for Active; 'I' for Inactive)
REMARK                            x       y       z     vdW  Elec       q    Type
REMARK                         _______ _______ _______ _____ _____    ______ ____
ROOT
ATOM      1  N   UNL     1       5.204   2.212   0.000  0.00  0.00    -0.314 N 
ATOM      2  H   UNL     1       5.538   0.750   0.000  0.00  0.00    +0.152 HD
ATOM      3  C   UNL     1       3.742   2.546   0.000  0.00  0.00    +0.039 A 
ATOM      4  C   UNL     1       2.897   1.307   0.000  0.00  0.00    +0.024 A 
ATOM      5  C   UNL     1       1.401   1.419   0.000  0.00  0.00    +0.002 A 
ATOM      6  C   UNL     1       0.750   2.770   0.000  0.00  0.00    +0.001 A 
ATOM      7  C   UNL     1       1.595   4.010   0.000  0.00  0.00    +0.010 A 
ATOM      8  C   UNL     1       3.091   3.898   0.000  0.00  0.00    -0.004 A 
ATOM      9  C   UNL     1       3.742   5.249   0.000  0.00  0.00    +0.010 C 
ATOM     10  C   UNL     1       5.204   5.583   0.000  0.00  0.00    +0.010 C 
ATOM     11  C   UNL     1       6.377   4.648   0.000  0.00  0.00    -0.004 A 
ATOM     12  C   UNL     1       7.676   5.398   0.000  0.00  0.00    +0.010 A 
ATOM     13  C   UNL     1       8.975   4.648   0.000  0.00  0.00    +0.001 A 
ATOM     14  C   UNL     1       8.975   3.148   0.000  0.00  0.00    +0.002 A 
ATOM     15  C   UNL     1       7.676   2.398   0.000  0.00  0.00    +0.024 A 
ATOM     16  C   UNL     1       6.377   3.148   0.000  0.00  0.00    +0.039 A 
ENDROOT
TORSDOF 0