REMARK  Name = 14396
REMARK  5 active torsions:
REMARK  status: ('A' for Active; 'I' for Inactive)
REMARK    1  A    between atoms: N_2  and  C_18
REMARK    2  A    between atoms: N_3  and  C_19
REMARK    3  A    between atoms: N_5  and  C_20
REMARK    4  A    between atoms: C_11  and  C_21
REMARK    5  A    between atoms: C_16  and  C_21
REMARK                            x       y       z     vdW  Elec       q    Type
REMARK                         _______ _______ _______ _____ _____    ______ ____
ROOT
ATOM      1  O   UNL     1      -1.020   3.276   0.000  0.00  0.00    -0.246 OA
ATOM      2  C   UNL     1       0.280   4.024   0.000  0.00  0.00    +0.333 A 
ATOM      3  N   UNL     1       1.578   3.272   0.000  0.00  0.00    -0.280 N 
ATOM      4  C   UNL     1       1.576   1.772   0.000  0.00  0.00    +0.155 C 
ATOM      5  C   UNL     1       2.878   4.021   0.000  0.00  0.00    +0.168 A 
ATOM      6  C   UNL     1       2.880   5.521   0.000  0.00  0.00    +0.151 A 
ATOM      7  C   UNL     1       1.582   6.272   0.000  0.00  0.00    +0.282 A 
ATOM      8  O   UNL     1       1.584   7.772   0.000  0.00  0.00    -0.265 OA
ATOM      9  N   UNL     1       4.307   5.982   0.000  0.00  0.00    -0.325 N 
ATOM     10  C   UNL     1       4.773   7.408   0.000  0.00  0.00    +0.151 C 
ATOM     11  C   UNL     1       5.187   4.767   0.000  0.00  0.00    +0.117 A 
ATOM     19  N   UNL     1       4.304   3.555   0.000  0.00  0.00    -0.214 NA
ATOM     20  N   UNL     1       0.282   5.524   0.000  0.00  0.00    -0.262 N 
ATOM     21  C   UNL     1      -1.016   6.276   0.000  0.00  0.00    +0.157 C 
ENDROOT
BRANCH  11  12
ATOM     12  C   UNL     1       6.687   4.765   0.000  0.00  0.00    +0.109 C 
BRANCH  12  13
ATOM     13  C   UNL     1       7.439   6.063   0.000  0.00  0.00    -0.040 A 
ATOM     14  C   UNL     1       8.939   6.061   0.000  0.00  0.00    +0.004 A 
ATOM     15  C   UNL     1       9.691   7.359   0.000  0.00  0.00    +0.000 A 
ATOM     16  C   UNL     1       8.943   8.659   0.000  0.00  0.00    +0.000 A 
ATOM     17  C   UNL     1       7.443   8.662   0.000  0.00  0.00    +0.000 A 
ATOM     18  C   UNL     1       6.691   7.364   0.000  0.00  0.00    +0.004 A 
ENDBRANCH  12  13
ENDBRANCH  11  12
TORSDOF 2