REMARK  Name = 111118
REMARK  4 active torsions:
REMARK  status: ('A' for Active; 'I' for Inactive)
REMARK    1  A    between atoms: C_4  and  S_18
REMARK    2  A    between atoms: C_10  and  S_15
REMARK    3  A    between atoms: S_15  and  C_16
REMARK    4  A    between atoms: C_16  and  S_18
REMARK                            x       y       z     vdW  Elec       q    Type
REMARK                         _______ _______ _______ _____ _____    ______ ____
ROOT
ATOM      7  C   UNL     1       5.571  -0.851   0.000  0.00  0.00    +0.094 C 
ATOM     16  S   UNL     1       5.571  -2.350   0.000  0.00  0.00    -0.036 S 
ENDROOT
BRANCH   7   6
ATOM      6  S   UNL     1       4.272  -0.101   0.000  0.00  0.00    -0.075 S 
BRANCH   6   5
ATOM      1 CL   UNL     1       4.272   5.899   0.000  0.00  0.00    -0.084 Cl
ATOM      2  C   UNL     1       4.272   4.399   0.000  0.00  0.00    +0.041 A 
ATOM      3  C   UNL     1       2.973   3.650   0.000  0.00  0.00    +0.021 A 
ATOM      4  C   UNL     1       2.973   2.150   0.000  0.00  0.00    +0.016 A 
ATOM      5  C   UNL     1       4.272   1.400   0.000  0.00  0.00    +0.014 A 
ATOM     17  C   UNL     1       5.571   2.150   0.000  0.00  0.00    +0.016 A 
ATOM     18  C   UNL     1       5.571   3.650   0.000  0.00  0.00    +0.021 A 
ENDBRANCH   6   5
ENDBRANCH   7   6
BRANCH   7   8
ATOM      8  S   UNL     1       6.870  -0.101   0.000  0.00  0.00    -0.075 S 
BRANCH   8   9
ATOM      9  C   UNL     1       8.169  -0.851   0.000  0.00  0.00    +0.014 A 
ATOM     10  C   UNL     1       8.169  -2.350   0.000  0.00  0.00    +0.016 A 
ATOM     11  C   UNL     1       9.468  -3.100   0.000  0.00  0.00    +0.021 A 
ATOM     12  C   UNL     1      10.767  -2.350   0.000  0.00  0.00    +0.041 A 
ATOM     13  C   UNL     1      10.767  -0.851   0.000  0.00  0.00    +0.021 A 
ATOM     14 CL   UNL     1      12.066  -3.100   0.000  0.00  0.00    -0.084 Cl
ATOM     15  C   UNL     1       9.468  -0.101   0.000  0.00  0.00    +0.016 A 
ENDBRANCH   8   9
ENDBRANCH   7   8
TORSDOF 4