REMARK  Name = 114490
REMARK  4 active torsions:
REMARK  status: ('A' for Active; 'I' for Inactive)
REMARK    1  A    between atoms: C_1  and  C_11
REMARK    2  A    between atoms: N_2  and  C_17
REMARK    3  A    between atoms: C_4  and  C_17
REMARK    4  A    between atoms: N_15  and  O_16
REMARK                            x       y       z     vdW  Elec       q    Type
REMARK                         _______ _______ _______ _____ _____    ______ ____
ROOT
ATOM      1  C   UNL     1       2.049  -5.250   0.000  0.00  0.00    +0.350 C 
ATOM      2  N   UNL     1       3.348  -6.000   0.000  0.00  0.00    -0.129 N 
ATOM      3  H   UNL     1       3.348  -6.984   0.000  0.00  0.00    +0.348 HD
ATOM     12  N   UNL     1       0.750  -6.000   0.000  0.00  0.00    -0.074 NA
ENDROOT
BRANCH   1   6
ATOM      6  C   UNL     1       2.049  -3.750   0.000  0.00  0.00    +0.070 A 
ATOM      7  C   UNL     1       0.750  -3.000   0.000  0.00  0.00    +0.016 A 
ATOM      8  C   UNL     1       0.750  -1.500   0.000  0.00  0.00    +0.001 A 
ATOM      9  C   UNL     1       2.049  -0.750   0.000  0.00  0.00    +0.000 A 
ATOM     10  C   UNL     1       3.348  -1.500   0.000  0.00  0.00    +0.001 A 
ATOM     11  C   UNL     1       3.348  -3.000   0.000  0.00  0.00    +0.016 A 
ENDBRANCH   1   6
BRANCH   2   4
ATOM      4  O   UNL     1       4.647  -5.250   0.000  0.00  0.00    -0.209 OA
ATOM      5  H   UNL     1       5.487  -5.735   0.000  0.00  0.00    +0.271 HD
ENDBRANCH   2   4
BRANCH  12  13
ATOM     13  C   UNL     1       0.750  -7.500   0.000  0.00  0.00    +0.326 C 
BRANCH  13  14
ATOM     14  C   UNL     1       2.049  -8.250   0.000  0.00  0.00    -0.002 A 
ATOM     15  C   UNL     1       2.049  -9.750   0.000  0.00  0.00    +0.007 A 
ATOM     16  C   UNL     1       3.348 -10.500   0.000  0.00  0.00    +0.000 A 
ATOM     17  C   UNL     1       4.647  -9.750   0.000  0.00  0.00    +0.000 A 
ATOM     18  C   UNL     1       4.647  -8.250   0.000  0.00  0.00    +0.000 A 
ATOM     19  C   UNL     1       3.348  -7.500   0.000  0.00  0.00    +0.007 A 
ENDBRANCH  13  14
ENDBRANCH  12  13
TORSDOF 4