REMARK  Name = 166900
REMARK  4 active torsions:
REMARK  status: ('A' for Active; 'I' for Inactive)
REMARK    1  A    between atoms: C_5  and  C_11
REMARK    2  A    between atoms: C_8  and  C_10
REMARK    3  A    between atoms: O_9  and  C_10
REMARK    4  A    between atoms: C_11  and  O_12
REMARK                            x       y       z     vdW  Elec       q    Type
REMARK                         _______ _______ _______ _____ _____    ______ ____
ROOT
ATOM      1  H   UNL     1       2.049   3.750   0.000  0.00  0.00    +0.189 HD
ATOM      2  N   UNL     1       3.348   3.000   0.000  0.00  0.00    -0.279 N 
ATOM      3  C   UNL     1       3.348   1.500   0.000  0.00  0.00    +0.064 A 
ATOM      7  C   UNL     1       4.647   0.750   0.000  0.00  0.00    +0.077 A 
ATOM      8  C   UNL     1       5.946   1.500   0.000  0.00  0.00    +0.206 A 
ATOM      9  C   UNL     1       5.946   3.000   0.000  0.00  0.00    +0.133 A 
ATOM     13  O   UNL     1       7.245   0.750   0.000  0.00  0.00    -0.286 OA
ATOM     14  N   UNL     1       4.647   3.750   0.000  0.00  0.00    -0.172 NA
ENDROOT
BRANCH   3   4
ATOM      4  C   UNL     1       2.049   0.750   0.000  0.00  0.00    +0.210 C 
BRANCH   4   5
ATOM      5  O   UNL     1       0.750   1.500   0.000  0.00  0.00    -0.389 OA
ATOM      6  H   UNL     1       0.750   2.470   0.000  0.00  0.00    +0.210 HD
ENDBRANCH   4   5
ENDBRANCH   3   4
BRANCH   9  10
ATOM     10  C   UNL     1       7.245   3.750   0.000  0.00  0.00    +0.216 C 
BRANCH  10  11
ATOM     11  O   UNL     1       8.544   3.000   0.000  0.00  0.00    -0.389 OA
ATOM     12  H   UNL     1       8.544   2.030   0.000  0.00  0.00    +0.210 HD
ENDBRANCH  10  11
ENDBRANCH   9  10
TORSDOF 4