REMARK  Name = 168221
REMARK  5 active torsions:
REMARK  status: ('A' for Active; 'I' for Inactive)
REMARK    1  A    between atoms: N_1  and  C_15
REMARK    2  A    between atoms: C_15  and  C_16
REMARK    3  A    between atoms: C_16  and  O_17
REMARK    4  A    between atoms: O_17  and  C_18
REMARK    5  A    between atoms: C_18  and  C_20
REMARK                            x       y       z     vdW  Elec       q    Type
REMARK                         _______ _______ _______ _____ _____    ______ ____
ROOT
ATOM      1  N   UNL     1       4.647  -7.489   0.000  0.00  0.00    -0.295 N 
ATOM      8  C   UNL     1       3.348  -8.239   0.000  0.00  0.00    +0.048 A 
ATOM      9  C   UNL     1       3.348  -9.739   0.000  0.00  0.00    +0.034 A 
ATOM     10  C   UNL     1       2.049 -10.489   0.000  0.00  0.00    +0.017 A 
ATOM     11  C   UNL     1       0.750  -9.739   0.000  0.00  0.00    +0.001 A 
ATOM     12  C   UNL     1       0.750  -8.239   0.000  0.00  0.00    +0.002 A 
ATOM     13  S   UNL     1       4.647 -10.489   0.000  0.00  0.00    -0.084 S 
ATOM     14  C   UNL     1       5.946  -9.739   0.000  0.00  0.00    +0.052 A 
ATOM     15  C   UNL     1       7.245 -10.489   0.000  0.00  0.00    +0.127 A 
ATOM     16  N   UNL     1       8.544  -9.739   0.000  0.00  0.00    -0.262 NA
ATOM     17  C   UNL     1       8.544  -8.239   0.000  0.00  0.00    +0.112 A 
ATOM     18  C   UNL     1       7.245  -7.489   0.000  0.00  0.00    +0.044 A 
ATOM     19  C   UNL     1       2.049  -7.489   0.000  0.00  0.00    +0.024 A 
ATOM     20  C   UNL     1       5.946  -8.239   0.000  0.00  0.00    +0.051 A 
ENDROOT
BRANCH   1   2
ATOM      2  C   UNL     1       4.647  -5.989   0.000  0.00  0.00    +0.152 C 
BRANCH   2   3
ATOM      3  C   UNL     1       5.946  -5.239   0.000  0.00  0.00    +0.251 C 
BRANCH   3   4
ATOM      4  O   UNL     1       5.946  -3.739   0.000  0.00  0.00    -0.463 OA
BRANCH   4   5
ATOM      5  C   UNL     1       4.647  -2.989   0.000  0.00  0.00    +0.304 C 
ATOM      6  C   UNL     1       3.348  -3.739   0.000  0.00  0.00    +0.136 C 
ATOM      7  O   UNL     1       4.647  -1.489   0.000  0.00  0.00    -0.251 OA
ENDBRANCH   4   5
ENDBRANCH   3   4
ENDBRANCH   2   3
ENDBRANCH   1   2
TORSDOF 4