REMARK  Name = 109231
REMARK  6 active torsions:
REMARK  status: ('A' for Active; 'I' for Inactive)
REMARK    1  A    between atoms: C_1  and  O_13
REMARK    2  A    between atoms: C_2  and  C_8
REMARK    3  A    between atoms: C_5  and  C_12
REMARK    4  A    between atoms: C_8  and  O_11
REMARK    5  A    between atoms: O_11  and  C_14
REMARK    6  A    between atoms: C_14  and  C_15
REMARK                            x       y       z     vdW  Elec       q    Type
REMARK                         _______ _______ _______ _____ _____    ______ ____
ROOT
ATOM      1  C   UNL     1      -4.172  -4.774   0.000  0.00  0.00    +0.138 A 
ATOM      4  C   UNL     1      -5.471  -5.524   0.000  0.00  0.00    +0.067 A 
ATOM      5  C   UNL     1      -5.471  -7.024   0.000  0.00  0.00    +0.019 A 
ATOM      6  C   UNL     1      -6.770  -7.774   0.000  0.00  0.00    +0.063 C 
ATOM      7  N   UNL     1      -4.172  -7.774   0.000  0.00  0.00    -0.326 N 
ATOM      8  H   UNL     1      -4.172  -9.274   0.000  0.00  0.00    +0.169 HD
ATOM      9  C   UNL     1      -2.873  -7.024   0.000  0.00  0.00    +0.267 A 
ATOM     10  O   UNL     1      -1.574  -7.774   0.000  0.00  0.00    -0.267 OA
ATOM     11  C   UNL     1      -2.873  -5.524   0.000  0.00  0.00    +0.164 A 
ENDROOT
BRANCH   1   2
ATOM      2  O   UNL     1      -4.172  -3.275   0.000  0.00  0.00    -0.506 OA
ATOM      3  H   UNL     1      -3.360  -2.806   0.000  0.00  0.00    +0.292 HD
ENDBRANCH   1   2
BRANCH  11  12
ATOM     12  C   UNL     1      -1.574  -4.774   0.000  0.00  0.00    +0.348 C 
ATOM     13  O   UNL     1      -1.574  -3.275   0.000  0.00  0.00    -0.245 OA
BRANCH  12  14
ATOM     14  O   UNL     1      -0.275  -5.524   0.000  0.00  0.00    -0.461 OA
BRANCH  14  15
ATOM     15  C   UNL     1       1.025  -4.774   0.000  0.00  0.00    +0.229 C 
ATOM     16  C   UNL     1       1.025  -3.275   0.000  0.00  0.00    +0.048 C 
ENDBRANCH  14  15
ENDBRANCH  12  14
ENDBRANCH  11  12
TORSDOF 4