REMARK  Name = 108750
REMARK  3 active torsions:
REMARK  status: ('A' for Active; 'I' for Inactive)
REMARK    1  A    between atoms: C_6  and  C_7
REMARK    2  A    between atoms: C_9  and  C_17
REMARK    3  A    between atoms: C_12  and  N_16
REMARK                            x       y       z     vdW  Elec       q    Type
REMARK                         _______ _______ _______ _____ _____    ______ ____
ROOT
ATOM      5  C   UNL     1       0.425  -7.271   0.000  0.00  0.00    +0.086 C 
ATOM      6  C   UNL     1       1.307  -8.485   0.000  0.00  0.00    +0.047 C 
ATOM     12  C   UNL     1       0.425  -9.698   0.000  0.00  0.00    +0.041 C 
ATOM     16  C   UNL     1      -1.002  -9.235   0.000  0.00  0.00    +0.000 A 
ATOM     17  C   UNL     1      -2.301  -9.985   0.000  0.00  0.00    +0.010 A 
ATOM     18  C   UNL     1      -3.600  -9.235   0.000  0.00  0.00    +0.001 A 
ATOM     19  C   UNL     1      -3.600  -7.735   0.000  0.00  0.00    +0.000 A 
ATOM     20  C   UNL     1      -2.301  -6.985   0.000  0.00  0.00    +0.005 A 
ATOM     21  C   UNL     1      -1.002  -7.735   0.000  0.00  0.00    -0.027 A 
ENDROOT
BRANCH   5   4
ATOM      1  C   UNL     1       1.816  -2.991   0.000  0.00  0.00    +0.000 A 
ATOM      2  C   UNL     1       0.348  -3.303   0.000  0.00  0.00    +0.000 A 
ATOM      3  C   UNL     1      -0.115  -4.730   0.000  0.00  0.00    +0.004 A 
ATOM      4  C   UNL     1       0.889  -5.845   0.000  0.00  0.00    -0.035 A 
ATOM     22  C   UNL     1       2.356  -5.533   0.000  0.00  0.00    +0.004 A 
ATOM     23  C   UNL     1       2.819  -4.106   0.000  0.00  0.00    +0.000 A 
ENDBRANCH   5   4
BRANCH   6   7
ATOM      7  C   UNL     1       2.807  -8.485   0.000  0.00  0.00    +0.240 C 
ATOM      8  N   UNL     1       3.557  -7.186   0.000  0.00  0.00    -0.326 N 
ATOM      9  H   UNL     1       3.064  -6.333   0.000  0.00  0.00    +0.145 HD
ATOM     10  H   UNL     1       4.541  -7.186   0.000  0.00  0.00    +0.145 HD
ATOM     11  O   UNL     1       3.557  -9.784   0.000  0.00  0.00    -0.271 OA
ENDBRANCH   6   7
BRANCH  12  13
ATOM     13  N   UNL     1       0.889 -11.125   0.000  0.00  0.00    -0.357 N 
ATOM     14  H   UNL     1       1.852 -11.330   0.000  0.00  0.00    +0.142 HD
ATOM     15  H   UNL     1       0.230 -11.857   0.000  0.00  0.00    +0.142 HD
ENDBRANCH  12  13
TORSDOF 3