REMARK  Name = 143974
REMARK  11 active torsions:
REMARK  status: ('A' for Active; 'I' for Inactive)
REMARK    1  A    between atoms: N_3  and  P_4
REMARK    2  A    between atoms: P_4  and  N_17
REMARK    3  A    between atoms: P_4  and  N_21
REMARK    4  A    between atoms: C_7  and  N_20
REMARK    5  A    between atoms: C_12  and  C_14
REMARK    6  A    between atoms: C_14  and  C_15
REMARK    7  A    between atoms: C_14  and  C_16
REMARK    8  A    between atoms: N_17  and  C_18
REMARK    9  A    between atoms: N_17  and  C_19
REMARK   10  A    between atoms: N_21  and  C_22
REMARK   11  A    between atoms: N_21  and  C_23
REMARK                            x       y       z     vdW  Elec       q    Type
REMARK                         _______ _______ _______ _____ _____    ______ ____
ROOT
ATOM      1  N   UNL     1       6.386   3.095   0.000  0.00  0.00    -0.145 NA
ATOM      2  N   UNL     1       5.922   1.668   0.000  0.00  0.00    -0.153 N 
ATOM      3  C   UNL     1       7.136   0.787   0.000  0.00  0.00    +0.226 A 
ATOM      4  N   UNL     1       7.136  -0.713   0.000  0.00  0.00    -0.283 N 
ATOM      5  H   UNL     1       6.283  -1.206   0.000  0.00  0.00    +0.155 HD
ATOM     12  N   UNL     1       8.349   1.668   0.000  0.00  0.00    -0.197 NA
ATOM     21  C   UNL     1       7.886   3.095   0.000  0.00  0.00    +0.156 A 
ENDROOT
BRANCH   4   6
ATOM      6  C   UNL     1       8.435  -1.463   0.000  0.00  0.00    +0.034 A 
ATOM      7  C   UNL     1       8.435  -2.963   0.000  0.00  0.00    +0.023 A 
ATOM      8  C   UNL     1       9.734  -3.713   0.000  0.00  0.00    +0.002 A 
ATOM      9  C   UNL     1      11.033  -2.963   0.000  0.00  0.00    +0.000 A 
ATOM     10  C   UNL     1      11.033  -1.463   0.000  0.00  0.00    +0.002 A 
ATOM     11  C   UNL     1       9.734  -0.713   0.000  0.00  0.00    +0.023 A 
ENDBRANCH   4   6
BRANCH  21  22
ATOM     22  C   UNL     1       8.768   4.309   0.000  0.00  0.00    +0.053 C 
ATOM     23  C   UNL     1      10.259   4.152   0.000  0.00  0.00    +0.015 C 
ATOM     24  C   UNL     1       8.157   5.679   0.000  0.00  0.00    +0.015 C 
ENDBRANCH  21  22
BRANCH   2  13
ATOM     13  P   UNL     1       4.496   1.205   0.000  0.00  0.00    +0.334 P 
ATOM     20  O   UNL     1       4.959  -0.222   0.000  0.00  0.00    -0.260 OA
BRANCH  13  14
ATOM     14  N   UNL     1       3.069   0.741   0.000  0.00  0.00    -0.229 NA
ATOM     15  C   UNL     1       2.757  -0.726   0.000  0.00  0.00    +0.115 C 
ATOM     16  C   UNL     1       1.954   1.745   0.000  0.00  0.00    +0.115 C 
ENDBRANCH  13  14
BRANCH  13  17
ATOM     17  N   UNL     1       4.032   2.632   0.000  0.00  0.00    -0.229 NA
ATOM     18  C   UNL     1       2.565   2.943   0.000  0.00  0.00    +0.115 C 
ATOM     19  C   UNL     1       5.036   3.746   0.000  0.00  0.00    +0.115 C 
ENDBRANCH  13  17
ENDBRANCH   2  13
TORSDOF 5