REMARK  Name = 15776
REMARK  1 active torsions:
REMARK  status: ('A' for Active; 'I' for Inactive)
REMARK    1  A    between atoms: C_3  and  C_11
REMARK                            x       y       z     vdW  Elec       q    Type
REMARK                         _______ _______ _______ _____ _____    ______ ____
ROOT
ATOM      1  C   UNL     1      -5.511  -2.881   0.000  0.00  0.00    +0.036 A 
ATOM      2  C   UNL     1      -6.725  -3.762   0.000  0.00  0.00    +0.000 A 
ATOM      3  C   UNL     1      -6.261  -5.189   0.000  0.00  0.00    +0.047 A 
ATOM      4  C   UNL     1      -7.265  -6.303   0.000  0.00  0.00    +0.026 A 
ATOM      5  C   UNL     1      -8.732  -5.992   0.000  0.00  0.00    +0.002 A 
ATOM      6  C   UNL     1      -9.196  -4.565   0.000  0.00  0.00    +0.001 A 
ATOM      7  N   UNL     1      -4.761  -5.189   0.000  0.00  0.00    -0.354 N 
ATOM      8  H   UNL     1      -3.880  -6.402   0.000  0.00  0.00    +0.166 HD
ATOM      9  C   UNL     1      -8.192  -3.450   0.000  0.00  0.00    +0.010 A 
ATOM     10  C   UNL     1      -4.298  -3.762   0.000  0.00  0.00    +0.047 A 
ENDROOT
BRANCH  10  11
ATOM     11  C   UNL     1      -2.871  -3.299   0.000  0.00  0.00    -0.002 A 
ATOM     12  C   UNL     1      -1.757  -4.302   0.000  0.00  0.00    +0.010 A 
ATOM     13  C   UNL     1      -0.330  -3.839   0.000  0.00  0.00    +0.001 A 
ATOM     14  C   UNL     1      -0.018  -2.372   0.000  0.00  0.00    +0.000 A 
ATOM     15  C   UNL     1      -1.133  -1.368   0.000  0.00  0.00    +0.001 A 
ATOM     16  C   UNL     1      -2.559  -1.831   0.000  0.00  0.00    +0.010 A 
ENDBRANCH  10  11
TORSDOF 1