REMARK  Name = 139168
REMARK  9 active torsions:
REMARK  status: ('A' for Active; 'I' for Inactive)
REMARK    1  A    between atoms: C_4  and  O_25
REMARK    2  A    between atoms: C_6  and  C_27
REMARK    3  A    between atoms: C_9  and  C_24
REMARK    4  A    between atoms: C_11  and  C_23
REMARK    5  A    between atoms: C_13  and  O_20
REMARK    6  A    between atoms: C_14  and  O_28
REMARK    7  A    between atoms: C_19  and  C_22
REMARK    8  A    between atoms: O_20  and  C_21
REMARK    9  A    between atoms: O_25  and  C_26
REMARK                            x       y       z     vdW  Elec       q    Type
REMARK                         _______ _______ _______ _____ _____    ______ ____
ROOT
ATOM      1  O   UNL     1       4.647   6.750   0.000  0.00  0.00    -0.288 OA
ATOM      2  C   UNL     1       4.647   5.250   0.000  0.00  0.00    +0.204 C 
ATOM      3  C   UNL     1       3.348   4.500   0.000  0.00  0.00    +0.159 C 
ATOM      6  C   UNL     1       3.348   3.000   0.000  0.00  0.00    +0.026 C 
ATOM      7  C   UNL     1       4.647   2.250   0.000  0.00  0.00    +0.016 C 
ATOM      8  C   UNL     1       4.647   0.750   0.000  0.00  0.00    +0.012 C 
ATOM      9  C   UNL     1       5.946   3.000   0.000  0.00  0.00    +0.012 C 
ATOM     10  C   UNL     1       7.245   2.250   0.000  0.00  0.00    +0.037 C 
ATOM     11  C   UNL     1       8.544   3.000   0.000  0.00  0.00    +0.129 C 
ATOM     12  C   UNL     1       8.544   4.500   0.000  0.00  0.00    +0.012 C 
ATOM     13  C   UNL     1       7.245   3.750   0.000  0.00  0.00    +0.015 C 
ATOM     14  C   UNL     1       7.245   5.250   0.000  0.00  0.00    +0.086 C 
ATOM     15  C   UNL     1       7.245   6.750   0.000  0.00  0.00    +0.202 C 
ATOM     16  C   UNL     1       8.544   7.500   0.000  0.00  0.00    +0.162 C 
ATOM     19  C   UNL     1       9.843   6.750   0.000  0.00  0.00    -0.024 C 
ATOM     20  C   UNL     1      11.142   7.500   0.000  0.00  0.00    +0.043 C 
ATOM     21  O   UNL     1       5.946   7.500   0.000  0.00  0.00    -0.288 OA
ATOM     22  C   UNL     1       9.843   5.250   0.000  0.00  0.00    +0.032 C 
ATOM     23  C   UNL     1      11.142   4.500   0.000  0.00  0.00    +0.069 C 
ATOM     24  C   UNL     1      11.142   3.000   0.000  0.00  0.00    +0.248 C 
ATOM     27  O   UNL     1       9.843   2.250   0.000  0.00  0.00    -0.348 OA
ATOM     28  C   UNL     1       5.946   4.500   0.000  0.00  0.00    +0.048 C 
ATOM     29  C   UNL     1       5.946   6.000   0.000  0.00  0.00    +0.020 C 
ENDROOT
BRANCH   3   4
ATOM      4  O   UNL     1       2.049   5.250   0.000  0.00  0.00    -0.492 OA
ATOM      5  C   UNL     1       0.750   4.500   0.000  0.00  0.00    +0.277 C 
ENDBRANCH   3   4
BRANCH  16  17
ATOM     17  O   UNL     1       8.544   9.000   0.000  0.00  0.00    -0.492 OA
ATOM     18  C   UNL     1       7.245   9.750   0.000  0.00  0.00    +0.277 C 
ENDBRANCH  16  17
BRANCH  24  25
ATOM     25  O   UNL     1      12.441   2.250   0.000  0.00  0.00    -0.367 OA
ATOM     26  H   UNL     1      12.441   1.280   0.000  0.00  0.00    +0.212 HD
ENDBRANCH  24  25
TORSDOF 3