REMARK  Name = 107679
REMARK  4 active torsions:
REMARK  status: ('A' for Active; 'I' for Inactive)
REMARK    1  A    between atoms: C_7  and  S_19
REMARK    2  A    between atoms: C_12  and  C_25
REMARK    3  A    between atoms: C_15  and  C_25
REMARK    4  A    between atoms: N_18  and  S_19
REMARK                            x       y       z     vdW  Elec       q    Type
REMARK                         _______ _______ _______ _____ _____    ______ ____
ROOT
ATOM      1 CL   UNL     1     -12.217  -5.250   0.000  0.00  0.00    -0.081 Cl
ATOM      2  C   UNL     1     -10.918  -4.500   0.000  0.00  0.00    +0.069 A 
ATOM      3  C   UNL     1      -9.619  -5.250   0.000  0.00  0.00    +0.047 A 
ATOM      4  C   UNL     1      -8.320  -4.500   0.000  0.00  0.00    +0.056 A 
ATOM      5  C   UNL     1      -8.320  -3.000   0.000  0.00  0.00    +0.128 A 
ATOM      6  S   UNL     1      -7.021  -2.250   0.000  0.00  0.00    +0.062 S 
ATOM      7  O   UNL     1      -7.021  -0.750   0.000  0.00  0.00    -0.153 OA
ATOM      8  O   UNL     1      -7.021  -3.750   0.000  0.00  0.00    -0.153 OA
ATOM      9  N   UNL     1      -5.722  -3.000   0.000  0.00  0.00    -0.170 NA
ATOM     10  H   UNL     1      -4.423  -2.250   0.000  0.00  0.00    +0.150 HD
ATOM     11  C   UNL     1      -5.722  -4.500   0.000  0.00  0.00    +0.160 C 
ATOM     18  C   UNL     1      -9.619  -2.250   0.000  0.00  0.00    +0.060 A 
ATOM     19  N   UNL     1      -7.021  -5.250   0.000  0.00  0.00    -0.326 N 
ATOM     20  H   UNL     1      -7.021  -6.750   0.000  0.00  0.00    +0.148 HD
ATOM     21  C   UNL     1     -10.918  -3.000   0.000  0.00  0.00    +0.125 A 
ENDROOT
BRANCH  21  22
ATOM     22  S   UNL     1     -12.217  -2.250   0.000  0.00  0.00    +0.057 S 
ATOM     23  O   UNL     1     -11.467  -0.951   0.000  0.00  0.00    -0.153 OA
ATOM     24  O   UNL     1     -12.967  -3.549   0.000  0.00  0.00    -0.153 OA
BRANCH  22  25
ATOM     25  N   UNL     1     -13.516  -1.500   0.000  0.00  0.00    -0.203 NA
ATOM     26  H   UNL     1     -14.400  -2.010   0.000  0.00  0.00    +0.144 HD
ATOM     27  H   UNL     1     -13.516  -0.480   0.000  0.00  0.00    +0.144 HD
ENDBRANCH  22  25
ENDBRANCH  21  22
BRANCH  11  12
ATOM     12  C   UNL     1      -4.423  -5.250   0.000  0.00  0.00    +0.043 C 
BRANCH  12  13
ATOM     13  C   UNL     1      -3.124  -4.500   0.000  0.00  0.00    -0.008 C 
ATOM     14  C   UNL     1      -1.754  -5.110   0.000  0.00  0.00    +0.003 C 
ATOM     15  C   UNL     1      -0.750  -3.995   0.000  0.00  0.00    +0.000 C 
ATOM     16  C   UNL     1      -1.500  -2.696   0.000  0.00  0.00    +0.000 C 
ATOM     17  C   UNL     1      -2.967  -3.008   0.000  0.00  0.00    +0.003 C 
ENDBRANCH  12  13
ENDBRANCH  11  12
TORSDOF 4