REMARK  Name = 15364
REMARK  4 active torsions:
REMARK  status: ('A' for Active; 'I' for Inactive)
REMARK    1  A    between atoms: C_3  and  N_17
REMARK    2  A    between atoms: C_4  and  N_18
REMARK    3  A    between atoms: C_9  and  N_14
REMARK    4  A    between atoms: C_11  and  N_13
REMARK                            x       y       z     vdW  Elec       q    Type
REMARK                         _______ _______ _______ _____ _____    ______ ____
ROOT
ATOM      3  N   UNL     1       6.870  -0.101   0.000  0.00  0.00    -0.269 N 
ATOM      4  H   UNL     1       6.870   0.884   0.000  0.00  0.00    +0.156 HD
ATOM      5  C   UNL     1       5.571  -0.851   0.000  0.00  0.00    +0.308 C 
ATOM      6  O   UNL     1       5.571  -2.350   0.000  0.00  0.00    -0.252 OA
ATOM      7  N   UNL     1       4.272  -0.101   0.000  0.00  0.00    -0.269 N 
ATOM      8  H   UNL     1       3.420  -0.593   0.000  0.00  0.00    +0.156 HD
ENDROOT
BRANCH   3   2
ATOM      1  C   UNL     1       9.468  -0.101   0.000  0.00  0.00    +0.025 A 
ATOM      2  C   UNL     1       8.169  -0.851   0.000  0.00  0.00    +0.035 A 
ATOM     18  C   UNL     1       8.169  -2.350   0.000  0.00  0.00    +0.025 A 
ATOM     19  C   UNL     1       9.468  -3.100   0.000  0.00  0.00    +0.024 A 
ATOM     20  C   UNL     1      10.767  -2.350   0.000  0.00  0.00    +0.025 A 
ATOM     24  C   UNL     1      10.767  -0.851   0.000  0.00  0.00    +0.024 A 
BRANCH  20  21
ATOM     21  N   UNL     1      12.066  -3.100   0.000  0.00  0.00    -0.358 N 
ATOM     22  H   UNL     1      12.919  -2.608   0.000  0.00  0.00    +0.142 HD
ATOM     23  H   UNL     1      12.066  -4.085   0.000  0.00  0.00    +0.142 HD
ENDBRANCH  20  21
ENDBRANCH   3   2
BRANCH   7   9
ATOM      9  C   UNL     1       4.272   1.400   0.000  0.00  0.00    +0.035 A 
ATOM     10  C   UNL     1       2.973   2.150   0.000  0.00  0.00    +0.025 A 
ATOM     11  C   UNL     1       2.973   3.650   0.000  0.00  0.00    +0.024 A 
ATOM     12  C   UNL     1       4.272   4.399   0.000  0.00  0.00    +0.025 A 
ATOM     16  C   UNL     1       5.571   3.650   0.000  0.00  0.00    +0.024 A 
ATOM     17  C   UNL     1       5.571   2.150   0.000  0.00  0.00    +0.025 A 
BRANCH  12  13
ATOM     13  N   UNL     1       4.272   5.899   0.000  0.00  0.00    -0.358 N 
ATOM     14  H   UNL     1       3.419   6.392   0.000  0.00  0.00    +0.142 HD
ATOM     15  H   UNL     1       5.125   6.392   0.000  0.00  0.00    +0.142 HD
ENDBRANCH  12  13
ENDBRANCH   7   9
TORSDOF 4