REMARK  Name = 120631
REMARK  7 active torsions:
REMARK  status: ('A' for Active; 'I' for Inactive)
REMARK    1  A    between atoms: O_1  and  C_11
REMARK    2  A    between atoms: O_1  and  C_18
REMARK    3  A    between atoms: O_2  and  C_4
REMARK    4  A    between atoms: O_2  and  C_19
REMARK    5  A    between atoms: C_13  and  C_15
REMARK    6  A    between atoms: C_15  and  O_17
REMARK    7  A    between atoms: C_18  and  C_19
REMARK                            x       y       z     vdW  Elec       q    Type
REMARK                         _______ _______ _______ _____ _____    ______ ____
ROOT
ATOM      1  O   UNL     1       3.522  -4.399   0.000  0.00  0.00    -0.489 OA
ENDROOT
BRANCH   1  11
ATOM     11  C   UNL     1       2.223  -5.149   0.000  0.00  0.00    +0.121 A 
ATOM     12  C   UNL     1       2.223  -6.649   0.000  0.00  0.00    +0.046 A 
ATOM     13  C   UNL     1       0.924  -7.399   0.000  0.00  0.00    +0.018 A 
ATOM     14  C   UNL     1      -0.375  -6.649   0.000  0.00  0.00    +0.059 A 
ATOM     19  C   UNL     1      -0.375  -5.149   0.000  0.00  0.00    +0.018 A 
ATOM     20  C   UNL     1       0.924  -4.399   0.000  0.00  0.00    +0.046 A 
BRANCH  14  15
ATOM     15  C   UNL     1      -1.674  -7.399   0.000  0.00  0.00    +0.337 C 
ATOM     18  O   UNL     1      -2.973  -6.649   0.000  0.00  0.00    -0.245 OA
BRANCH  15  16
ATOM     16  O   UNL     1      -1.674  -8.899   0.000  0.00  0.00    -0.477 OA
ATOM     17  H   UNL     1      -2.485  -9.368   0.000  0.00  0.00    +0.295 HD
ENDBRANCH  15  16
ENDBRANCH  14  15
ENDBRANCH   1  11
BRANCH   1   2
ATOM      2  C   UNL     1       3.262  -2.922   0.000  0.00  0.00    +0.270 C 
BRANCH   2   3
ATOM      3  C   UNL     1       4.411  -1.958   0.000  0.00  0.00    +0.270 C 
BRANCH   3   4
ATOM      4  O   UNL     1       5.820  -2.471   0.000  0.00  0.00    -0.489 OA
BRANCH   4   5
ATOM      5  C   UNL     1       6.081  -3.948   0.000  0.00  0.00    +0.121 A 
ATOM      6  C   UNL     1       7.490  -4.461   0.000  0.00  0.00    +0.045 A 
ATOM      7  C   UNL     1       7.751  -5.939   0.000  0.00  0.00    +0.004 A 
ATOM      8  C   UNL     1       6.602  -6.903   0.000  0.00  0.00    +0.000 A 
ATOM      9  C   UNL     1       5.192  -6.390   0.000  0.00  0.00    +0.004 A 
ATOM     10  C   UNL     1       4.932  -4.912   0.000  0.00  0.00    +0.045 A 
ENDBRANCH   4   5
ENDBRANCH   3   4
ENDBRANCH   2   3
ENDBRANCH   1   2
TORSDOF 7