REMARK  Name = 123389
REMARK  3 active torsions:
REMARK  status: ('A' for Active; 'I' for Inactive)
REMARK    1  A    between atoms: C_18  and  O_22
REMARK    2  A    between atoms: C_21  and  O_23
REMARK    3  A    between atoms: O_23  and  C_24
REMARK                            x       y       z     vdW  Elec       q    Type
REMARK                         _______ _______ _______ _____ _____    ______ ____
ROOT
ATOM      1  N   UNL     1       4.821   5.149   0.000  0.00  0.00    -0.291 NA
ATOM      2  C   UNL     1       3.522   4.399   0.000  0.00  0.00    +0.124 C 
ATOM      3  C   UNL     1       2.223   5.149   0.000  0.00  0.00    +0.015 A 
ATOM      4  C   UNL     1       0.924   4.399   0.000  0.00  0.00    +0.166 A 
ATOM      7  C   UNL     1      -0.375   5.149   0.000  0.00  0.00    +0.159 A 
ATOM     10  C   UNL     1      -0.375   6.649   0.000  0.00  0.00    +0.049 A 
ATOM     11  C   UNL     1       0.924   7.399   0.000  0.00  0.00    +0.008 A 
ATOM     12  C   UNL     1       2.223   6.649   0.000  0.00  0.00    -0.037 A 
ATOM     13  C   UNL     1       3.522   7.399   0.000  0.00  0.00    +0.059 C 
ATOM     14  C   UNL     1       6.120   4.399   0.000  0.00  0.00    +0.090 C 
ATOM     15  C   UNL     1       7.419   5.149   0.000  0.00  0.00    +0.051 C 
ATOM     16  C   UNL     1       7.419   6.649   0.000  0.00  0.00    -0.038 A 
ATOM     17  C   UNL     1       6.120   7.399   0.000  0.00  0.00    -0.023 A 
ATOM     18  C   UNL     1       6.120   8.899   0.000  0.00  0.00    +0.055 A 
ATOM     19  C   UNL     1       7.419   9.649   0.000  0.00  0.00    +0.167 A 
ATOM     20  C   UNL     1       8.718   8.899   0.000  0.00  0.00    +0.167 A 
ATOM     21  O   UNL     1       9.833   9.903   0.000  0.00  0.00    -0.453 OA
ATOM     22  C   UNL     1       9.223  11.274   0.000  0.00  0.00    +0.466 C 
ATOM     23  O   UNL     1       7.731  11.117   0.000  0.00  0.00    -0.453 OA
ATOM     24  C   UNL     1       8.718   7.399   0.000  0.00  0.00    +0.053 A 
ATOM     25  C   UNL     1       4.821   6.649   0.000  0.00  0.00    +0.092 C 
ENDROOT
BRANCH   4   5
ATOM      5  O   UNL     1       0.924   2.900   0.000  0.00  0.00    -0.491 OA
ATOM      6  C   UNL     1      -0.375   2.150   0.000  0.00  0.00    +0.277 C 
ENDBRANCH   4   5
BRANCH   7   8
ATOM      8  O   UNL     1      -1.674   4.399   0.000  0.00  0.00    -0.503 OA
ATOM      9  H   UNL     1      -2.485   4.868   0.000  0.00  0.00    +0.292 HD
ENDBRANCH   7   8
TORSDOF 2