REMARK  Name = 11141
REMARK  4 active torsions:
REMARK  status: ('A' for Active; 'I' for Inactive)
REMARK    1  A    between atoms: C_1  and  C_2
REMARK    2  A    between atoms: C_1  and  C_4
REMARK    3  A    between atoms: C_1  and  C_10
REMARK    4  A    between atoms: C_1  and  C_11
REMARK                            x       y       z     vdW  Elec       q    Type
REMARK                         _______ _______ _______ _____ _____    ______ ____
ROOT
ATOM      1  C   UNL     1      -3.000  -2.250   0.000  0.00  0.00    +0.066 C 
ATOM      2  C   UNL     1      -3.000  -3.750   0.000  0.00  0.00    +0.025 C 
ATOM      3  C   UNL     1      -3.000  -0.750   0.000  0.00  0.00    +0.025 C 
ENDROOT
BRANCH   1   4
ATOM      4  C   UNL     1      -4.500  -2.250   0.000  0.00  0.00    -0.033 A 
ATOM      5  C   UNL     1      -5.250  -0.951   0.000  0.00  0.00    +0.004 A 
ATOM      6  C   UNL     1      -6.750  -0.951   0.000  0.00  0.00    +0.000 A 
ATOM      7  C   UNL     1      -7.500  -2.250   0.000  0.00  0.00    +0.000 A 
ATOM      8  C   UNL     1      -6.750  -3.549   0.000  0.00  0.00    +0.000 A 
ATOM      9  C   UNL     1      -5.250  -3.549   0.000  0.00  0.00    +0.004 A 
ENDBRANCH   1   4
BRANCH   1  10
ATOM     10  C   UNL     1      -1.500  -2.250   0.000  0.00  0.00    +0.220 C 
ATOM     11  N   UNL     1      -0.750  -3.549   0.000  0.00  0.00    -0.329 N 
ATOM     12  H   UNL     1       0.234  -3.549   0.000  0.00  0.00    +0.145 HD
ATOM     13  H   UNL     1      -1.242  -4.402   0.000  0.00  0.00    +0.145 HD
ATOM     14  O   UNL     1      -0.750  -0.951   0.000  0.00  0.00    -0.275 OA
ENDBRANCH   1  10
TORSDOF 2