REMARK  Name = 193528
REMARK  11 active torsions:
REMARK  status: ('A' for Active; 'I' for Inactive)
REMARK    1  A    between atoms: N_1  and  C_8
REMARK    2  A    between atoms: C_3  and  S_6
REMARK    3  A    between atoms: C_4  and  C_11
REMARK    4  A    between atoms: C_5  and  C_9
REMARK    5  A    between atoms: S_6  and  C_7
REMARK    6  A    between atoms: C_9  and  O_13
REMARK    7  A    between atoms: C_11  and  O_16
REMARK    8  A    between atoms: O_13  and  C_14
REMARK    9  A    between atoms: C_14  and  C_15
REMARK   10  A    between atoms: O_16  and  C_17
REMARK   11  A    between atoms: C_17  and  C_18
REMARK                            x       y       z     vdW  Elec       q    Type
REMARK                         _______ _______ _______ _____ _____    ______ ____
ROOT
ATOM      1  N   UNL     1      -3.269  -7.207   0.000  0.00  0.00    -0.316 N 
ATOM      2  C   UNL     1      -1.802  -7.519   0.000  0.00  0.00    +0.151 C 
ATOM      3  C   UNL     1      -3.879  -5.837   0.000  0.00  0.00    +0.161 A 
ATOM      9  C   UNL     1      -5.371  -5.994   0.000  0.00  0.00    +0.181 A 
ATOM     15  N   UNL     1      -5.683  -7.461   0.000  0.00  0.00    -0.214 NA
ATOM     16  C   UNL     1      -4.383  -8.211   0.000  0.00  0.00    +0.170 A 
ENDROOT
BRANCH   3   4
ATOM      4  C   UNL     1      -3.129  -4.538   0.000  0.00  0.00    +0.358 C 
ATOM      8  O   UNL     1      -3.879  -3.239   0.000  0.00  0.00    -0.243 OA
BRANCH   4   5
ATOM      5  O   UNL     1      -1.629  -4.538   0.000  0.00  0.00    -0.460 OA
BRANCH   5   6
ATOM      6  C   UNL     1      -0.879  -3.239   0.000  0.00  0.00    +0.229 C 
ATOM      7  C   UNL     1       0.621  -3.239   0.000  0.00  0.00    +0.048 C 
ENDBRANCH   5   6
ENDBRANCH   4   5
ENDBRANCH   3   4
BRANCH   9  10
ATOM     10  C   UNL     1      -6.374  -4.879   0.000  0.00  0.00    +0.360 C 
ATOM     14  O   UNL     1      -5.911  -3.453   0.000  0.00  0.00    -0.243 OA
BRANCH  10  11
ATOM     11  O   UNL     1      -7.842  -5.191   0.000  0.00  0.00    -0.460 OA
BRANCH  11  12
ATOM     12  C   UNL     1      -8.305  -6.618   0.000  0.00  0.00    +0.229 C 
ATOM     13  C   UNL     1      -9.772  -6.930   0.000  0.00  0.00    +0.048 C 
ENDBRANCH  11  12
ENDBRANCH  10  11
ENDBRANCH   9  10
BRANCH  16  17
ATOM     17  S   UNL     1      -4.227  -9.703   0.000  0.00  0.00    -0.091 S 
ATOM     18  C   UNL     1      -5.440 -10.585   0.000  0.00  0.00    +0.093 C 
ENDBRANCH  16  17
TORSDOF 7