REMARK  Name = 166596
REMARK  2 active torsions:
REMARK  status: ('A' for Active; 'I' for Inactive)
REMARK    1  A    between atoms: C_10  and  C_11
REMARK    2  A    between atoms: C_13  and  C_14
REMARK                            x       y       z     vdW  Elec       q    Type
REMARK                         _______ _______ _______ _____ _____    ______ ____
ROOT
ATOM      1  N   UNL     1       2.375   7.405   0.000  0.00  0.00    -0.124 NA
ATOM      2  C   UNL     1       2.839   5.979   0.000  0.00  0.00    +0.188 A 
ATOM      9  N   UNL     1       4.339   5.979   0.000  0.00  0.00    -0.158 N 
ATOM     10  C   UNL     1       4.802   7.405   0.000  0.00  0.00    +0.347 A 
ATOM     11  O   UNL     1       6.302   7.405   0.000  0.00  0.00    -0.401 OA
ATOM     12  C   UNL     1       6.766   5.979   0.000  0.00  0.00    +0.255 A 
ATOM     18  N   UNL     1       5.552   5.097   0.000  0.00  0.00    -0.121 NA
ATOM     19  N   UNL     1       3.589   8.287   0.000  0.00  0.00    -0.090 NA
ENDROOT
BRANCH   2   3
ATOM      3  C   UNL     1       1.957   4.765   0.000  0.00  0.00    +0.021 A 
ATOM      4  C   UNL     1       0.465   4.922   0.000  0.00  0.00    +0.011 A 
ATOM      5  C   UNL     1      -0.416   3.708   0.000  0.00  0.00    +0.001 A 
ATOM      6  C   UNL     1       0.194   2.338   0.000  0.00  0.00    +0.000 A 
ATOM      7  C   UNL     1       1.686   2.181   0.000  0.00  0.00    +0.001 A 
ATOM      8  C   UNL     1       2.567   3.395   0.000  0.00  0.00    +0.011 A 
ENDBRANCH   2   3
BRANCH  12  13
ATOM     13  C   UNL     1       8.193   5.515   0.000  0.00  0.00    +0.076 A 
ATOM     14  C   UNL     1       8.656   4.088   0.000  0.00  0.00    +0.021 A 
ATOM     15  C   UNL     1      10.156   4.088   0.000  0.00  0.00    +0.008 A 
ATOM     16  C   UNL     1      10.620   5.515   0.000  0.00  0.00    +0.046 A 
ATOM     17  S   UNL     1       9.406   6.397   0.000  0.00  0.00    -0.092 S 
ENDBRANCH  12  13
TORSDOF 2