REMARK  Name = 147829
REMARK  0 active torsions:
REMARK  status: ('A' for Active; 'I' for Inactive)
REMARK                            x       y       z     vdW  Elec       q    Type
REMARK                         _______ _______ _______ _____ _____    ______ ____
ROOT
ATOM      1  C   UNL     1       1.367   2.825   0.000  0.00  0.00    +0.002 A 
ATOM      2  C   UNL     1       1.367   1.325   0.000  0.00  0.00    +0.001 A 
ATOM      3  C   UNL     1       2.666   0.575   0.000  0.00  0.00    +0.010 A 
ATOM      4  C   UNL     1       3.965   1.325   0.000  0.00  0.00    +0.004 A 
ATOM      5  C   UNL     1       5.392   0.861   0.000  0.00  0.00    -0.008 A 
ATOM      6  C   UNL     1       6.002  -0.509   0.000  0.00  0.00    +0.057 C 
ATOM      7  C   UNL     1       7.494  -0.666   0.000  0.00  0.00    +0.109 C 
ATOM      8  N   UNL     1       8.375   0.548   0.000  0.00  0.00    -0.310 N 
ATOM      9  H   UNL     1       9.867   0.391   0.000  0.00  0.00    +0.149 HD
ATOM     10  C   UNL     1       7.765   1.918   0.000  0.00  0.00    +0.261 C 
ATOM     11  O   UNL     1       8.647   3.132   0.000  0.00  0.00    -0.269 OA
ATOM     12  C   UNL     1       6.274   2.075   0.000  0.00  0.00    +0.106 A 
ATOM     13  N   UNL     1       5.392   3.288   0.000  0.00  0.00    -0.350 N 
ATOM     14  H   UNL     1       5.855   4.715   0.000  0.00  0.00    +0.166 HD
ATOM     15  C   UNL     1       3.965   2.825   0.000  0.00  0.00    +0.047 A 
ATOM     16  C   UNL     1       2.666   3.575   0.000  0.00  0.00    +0.026 A 
ENDROOT
TORSDOF 0