REMARK  Name = 146554
REMARK  6 active torsions:
REMARK  status: ('A' for Active; 'I' for Inactive)
REMARK    1  A    between atoms: C_1  and  C_13
REMARK    2  A    between atoms: C_2  and  N_17
REMARK    3  A    between atoms: C_6  and  N_14
REMARK    4  A    between atoms: C_8  and  N_20
REMARK    5  A    between atoms: C_10  and  S_21
REMARK    6  A    between atoms: S_21  and  N_24
REMARK                            x       y       z     vdW  Elec       q    Type
REMARK                         _______ _______ _______ _____ _____    ______ ____
ROOT
ATOM     11  N   UNL     1       1.674   7.399   0.000  0.00  0.00    -0.269 N 
ATOM     12  H   UNL     1       2.527   6.907   0.000  0.00  0.00    +0.156 HD
ATOM     13  C   UNL     1       1.674   8.899   0.000  0.00  0.00    +0.308 C 
ATOM     14  N   UNL     1       2.973   9.649   0.000  0.00  0.00    -0.269 N 
ATOM     15  H   UNL     1       3.826   9.157   0.000  0.00  0.00    +0.156 HD
ATOM     28  O   UNL     1       0.375   9.649   0.000  0.00  0.00    -0.252 OA
ENDROOT
BRANCH  11  10
ATOM      1  C   UNL     1      -0.924   7.399   0.000  0.00  0.00    -0.029 A 
ATOM      2  C   UNL     1      -0.924   8.899   0.000  0.00  0.00    +0.045 C 
ATOM      3  C   UNL     1      -2.223   6.649   0.000  0.00  0.00    +0.012 A 
ATOM      4  C   UNL     1      -2.223   5.149   0.000  0.00  0.00    +0.084 A 
ATOM      5  C   UNL     1      -0.924   4.399   0.000  0.00  0.00    +0.275 A 
ATOM      9  C   UNL     1       0.375   5.149   0.000  0.00  0.00    +0.107 A 
ATOM     10  C   UNL     1       0.375   6.649   0.000  0.00  0.00    +0.044 A 
BRANCH   5   6
ATOM      6  N   UNL     1      -0.924   2.900   0.000  0.00  0.00    +0.080 N 
ATOM      7  O   UNL     1       0.375   2.150   0.000  0.00  0.00    +0.041 OA
ATOM      8  O   UNL     1      -2.223   2.150   0.000  0.00  0.00    -0.576 OA
ENDBRANCH   5   6
ENDBRANCH  11  10
BRANCH  14  16
ATOM     16  C   UNL     1       2.973  11.150   0.000  0.00  0.00    +0.035 A 
ATOM     17  C   UNL     1       4.272  11.900   0.000  0.00  0.00    +0.025 A 
ATOM     18  C   UNL     1       4.272  13.400   0.000  0.00  0.00    +0.030 A 
ATOM     19  C   UNL     1       2.973  14.150   0.000  0.00  0.00    +0.105 A 
ATOM     26  C   UNL     1       1.674  13.400   0.000  0.00  0.00    +0.030 A 
ATOM     27  C   UNL     1       1.674  11.900   0.000  0.00  0.00    +0.025 A 
BRANCH  19  20
ATOM     20  S   UNL     1       2.973  15.650   0.000  0.00  0.00    +0.056 S 
ATOM     24  O   UNL     1       1.473  15.650   0.000  0.00  0.00    -0.153 OA
ATOM     25  O   UNL     1       4.473  15.650   0.000  0.00  0.00    -0.153 OA
BRANCH  20  21
ATOM     21  N   UNL     1       2.973  17.150   0.000  0.00  0.00    -0.204 NA
ATOM     22  H   UNL     1       2.090  17.659   0.000  0.00  0.00    +0.144 HD
ATOM     23  H   UNL     1       3.856  17.660   0.000  0.00  0.00    +0.144 HD
ENDBRANCH  20  21
ENDBRANCH  19  20
ENDBRANCH  14  16
TORSDOF 5