REMARK  Name = 16162
REMARK  5 active torsions:
REMARK  status: ('A' for Active; 'I' for Inactive)
REMARK    1  A    between atoms: C_1  and  C_7
REMARK    2  A    between atoms: C_2  and  N_10
REMARK    3  A    between atoms: C_7  and  O_9
REMARK    4  A    between atoms: N_10  and  C_11
REMARK    5  A    between atoms: C_11  and  C_12
REMARK                            x       y       z     vdW  Elec       q    Type
REMARK                         _______ _______ _______ _____ _____    ______ ____
ROOT
ATOM      1  C   UNL     1      -6.114  -3.000   0.000  0.00  0.00    +0.080 A 
ATOM      6  C   UNL     1      -7.413  -3.750   0.000  0.00  0.00    +0.017 A 
ATOM      7  C   UNL     1      -7.413  -5.250   0.000  0.00  0.00    +0.001 A 
ATOM      8  C   UNL     1      -6.114  -6.000   0.000  0.00  0.00    +0.002 A 
ATOM      9  C   UNL     1      -4.814  -5.250   0.000  0.00  0.00    +0.024 A 
ATOM     10  C   UNL     1      -4.814  -3.750   0.000  0.00  0.00    +0.041 A 
ENDROOT
BRANCH   1   2
ATOM      2  C   UNL     1      -6.114  -1.500   0.000  0.00  0.00    +0.339 C 
ATOM      5  O   UNL     1      -7.413  -0.750   0.000  0.00  0.00    -0.245 OA
BRANCH   2   3
ATOM      3  O   UNL     1      -4.814  -0.750   0.000  0.00  0.00    -0.477 OA
ATOM      4  H   UNL     1      -4.003  -1.218   0.000  0.00  0.00    +0.295 HD
ENDBRANCH   2   3
ENDBRANCH   1   2
BRANCH  10  11
ATOM     11  N   UNL     1      -3.515  -3.000   0.000  0.00  0.00    -0.343 N 
ATOM     12  H   UNL     1      -3.516  -2.016   0.000  0.00  0.00    +0.146 HD
BRANCH  11  13
ATOM     13  C   UNL     1      -2.216  -3.750   0.000  0.00  0.00    +0.098 C 
ATOM     14  C   UNL     1      -0.917  -3.000   0.000  0.00  0.00    +0.024 C 
ENDBRANCH  11  13
ENDBRANCH  10  11
TORSDOF 4