REMARK  Name = 19108
REMARK  1 active torsions:
REMARK  status: ('A' for Active; 'I' for Inactive)
REMARK    1  A    between atoms: N_8  and  C_15
REMARK                            x       y       z     vdW  Elec       q    Type
REMARK                         _______ _______ _______ _____ _____    ______ ____
ROOT
ATOM      1  O   UNL     1      -3.405  -2.023   0.000  0.00  0.00    -0.247 OA
ATOM      2  C   UNL     1      -2.601  -0.756   0.000  0.00  0.00    +0.326 A 
ATOM      3  N   UNL     1      -1.103  -0.820   0.000  0.00  0.00    -0.292 N 
ATOM      4  H   UNL     1      -0.408  -2.149   0.000  0.00  0.00    +0.172 HD
ATOM      5  C   UNL     1      -0.299   0.447   0.000  0.00  0.00    +0.149 A 
ATOM      6  C   UNL     1      -0.993   1.776   0.000  0.00  0.00    +0.137 A 
ATOM      7  C   UNL     1      -2.492   1.839   0.000  0.00  0.00    +0.117 A 
ATOM      8  S   UNL     1      -3.187   3.169   0.000  0.00  0.00    -0.030 S 
ATOM      9  N   UNL     1       0.057   2.848   0.000  0.00  0.00    -0.231 NA
ATOM     10  C   UNL     1       1.400   2.180   0.000  0.00  0.00    +0.206 A 
ATOM     11  N   UNL     1       1.181   0.697   0.000  0.00  0.00    -0.285 N 
ATOM     18  N   UNL     1      -3.296   0.573   0.000  0.00  0.00    -0.300 N 
ATOM     19  H   UNL     1      -4.795   0.636   0.000  0.00  0.00    +0.171 HD
ENDROOT
BRANCH  11  12
ATOM     12  C   UNL     1       2.252  -0.353   0.000  0.00  0.00    +0.049 A 
ATOM     13  C   UNL     1       1.879  -1.806   0.000  0.00  0.00    +0.026 A 
ATOM     14  C   UNL     1       2.950  -2.856   0.000  0.00  0.00    +0.002 A 
ATOM     15  C   UNL     1       4.395  -2.453   0.000  0.00  0.00    +0.000 A 
ATOM     16  C   UNL     1       4.768  -1.000   0.000  0.00  0.00    +0.002 A 
ATOM     17  C   UNL     1       3.697   0.050   0.000  0.00  0.00    +0.026 A 
ENDBRANCH  11  12
TORSDOF 1