REMARK  Name = 203065
REMARK  2 active torsions:
REMARK  status: ('A' for Active; 'I' for Inactive)
REMARK    1  A    between atoms: C_1  and  C_3
REMARK    2  A    between atoms: N_2  and  C_3
REMARK                            x       y       z     vdW  Elec       q    Type
REMARK                         _______ _______ _______ _____ _____    ______ ____
ROOT
ATOM      3  C   UNL     1       4.172   1.674   0.000  0.00  0.00    +0.083 C 
ATOM      4  C   UNL     1       3.659   0.264   0.000  0.00  0.00    +0.035 C 
ATOM      5  C   UNL     1       2.182   0.004   0.000  0.00  0.00    +0.003 C 
ATOM      6  C   UNL     1       1.218   1.153   0.000  0.00  0.00    +0.000 C 
ATOM      7  C   UNL     1       1.731   2.563   0.000  0.00  0.00    +0.003 C 
ATOM      8  C   UNL     1       3.208   2.823   0.000  0.00  0.00    +0.035 C 
ENDROOT
BRANCH   3   9
ATOM      9  N   UNL     1       5.471   0.924   0.000  0.00  0.00    -0.287 NA
ATOM     10  C   UNL     1       5.471  -0.576   0.000  0.00  0.00    +0.086 C 
ATOM     11  C   UNL     1       6.770  -1.326   0.000  0.00  0.00    +0.015 C 
ATOM     12  C   UNL     1       8.069  -0.576   0.000  0.00  0.00    +0.002 C 
ATOM     13  C   UNL     1       8.069   0.924   0.000  0.00  0.00    +0.015 C 
ATOM     14  C   UNL     1       6.770   1.674   0.000  0.00  0.00    +0.086 C 
ENDBRANCH   3   9
BRANCH   3   1
ATOM      1  C   UNL     1       5.136   2.823   0.000  0.00  0.00    -0.083 C 
ATOM      2  C   UNL     1       6.101   3.972   0.000  0.00  0.00    +0.006 C 
ENDBRANCH   3   1
TORSDOF 2