REMARK  Name = 19824
REMARK  3 active torsions:
REMARK  status: ('A' for Active; 'I' for Inactive)
REMARK    1  A    between atoms: C_9  and  C_20
REMARK    2  A    between atoms: C_9  and  C_21
REMARK    3  A    between atoms: C_11  and  O_19
REMARK                            x       y       z     vdW  Elec       q    Type
REMARK                         _______ _______ _______ _____ _____    ______ ____
ROOT
ATOM      1  N   UNL     1      -6.124  -3.000   0.000  0.00  0.00    -0.246 NA
ATOM      2  C   UNL     1      -4.825  -3.750   0.000  0.00  0.00    +0.078 A 
ATOM      3  C   UNL     1      -4.825  -5.250   0.000  0.00  0.00    +0.008 A 
ATOM      4  C   UNL     1      -6.124  -6.000   0.000  0.00  0.00    +0.018 A 
ATOM      5  C   UNL     1      -7.423  -5.250   0.000  0.00  0.00    +0.001 A 
ATOM      6  C   UNL     1      -8.722  -6.000   0.000  0.00  0.00    +0.010 A 
ATOM      7  C   UNL     1     -10.021  -5.250   0.000  0.00  0.00    +0.001 A 
ATOM      8  C   UNL     1     -10.021  -3.750   0.000  0.00  0.00    +0.002 A 
ATOM      9  C   UNL     1      -8.722  -3.000   0.000  0.00  0.00    +0.028 A 
ATOM     10  C   UNL     1      -3.526  -6.000   0.000  0.00  0.00    +0.157 C 
ATOM     13  C   UNL     1      -2.227  -5.250   0.000  0.00  0.00    +0.021 C 
ATOM     14  C   UNL     1      -0.750  -4.989   0.000  0.00  0.00    +0.019 C 
ATOM     15  C   UNL     1      -1.714  -6.660   0.000  0.00  0.00    +0.019 C 
ATOM     16  C   UNL     1      -2.227  -3.750   0.000  0.00  0.00    -0.030 A 
ATOM     17  C   UNL     1      -0.928  -3.000   0.000  0.00  0.00    +0.005 A 
ATOM     18  C   UNL     1      -0.928  -1.500   0.000  0.00  0.00    +0.000 A 
ATOM     19  C   UNL     1      -2.227  -0.750   0.000  0.00  0.00    +0.001 A 
ATOM     20  C   UNL     1      -3.526  -1.500   0.000  0.00  0.00    +0.010 A 
ATOM     21  C   UNL     1      -3.526  -3.000   0.000  0.00  0.00    +0.004 A 
ATOM     22  C   UNL     1      -7.423  -3.750   0.000  0.00  0.00    +0.072 A 
ENDROOT
BRANCH  10  11
ATOM     11  O   UNL     1      -3.526  -7.500   0.000  0.00  0.00    -0.386 OA
ATOM     12  H   UNL     1      -4.366  -7.985   0.000  0.00  0.00    +0.210 HD
ENDBRANCH  10  11
TORSDOF 1