REMARK  Name = 156616
REMARK  1 active torsions:
REMARK  status: ('A' for Active; 'I' for Inactive)
REMARK    1  A    between atoms: N_1  and  N_12
REMARK                            x       y       z     vdW  Elec       q    Type
REMARK                         _______ _______ _______ _____ _____    ______ ____
ROOT
ATOM      1  N   UNL     1      -1.925  -0.457   0.000  0.00  0.00    +0.004 N 
ATOM      5  C   UNL     1      -0.443  -0.691   0.000  0.00  0.00    +0.368 C 
ATOM      6  O   UNL     1       0.239  -2.027   0.000  0.00  0.00    -0.247 OA
ATOM      7  N   UNL     1       0.237   0.646   0.000  0.00  0.00    -0.227 N 
ATOM      8  C   UNL     1       1.718   0.882   0.000  0.00  0.00    +0.191 A 
ATOM      9  S   UNL     1       2.398   2.220   0.000  0.00  0.00    -0.038 S 
ATOM     10  C   UNL     1       3.880   1.986   0.000  0.00  0.00    +0.183 A 
ATOM     11  N   UNL     1       4.116   0.505   0.000  0.00  0.00    -0.148 NA
ATOM     12  N   UNL     1       2.780  -0.177   0.000  0.00  0.00    -0.126 NA
ATOM     13  C   UNL     1      -0.825   1.706   0.000  0.00  0.00    +0.142 C 
ATOM     14  C   UNL     1      -2.161   1.024   0.000  0.00  0.00    +0.208 C 
ENDROOT
BRANCH   1   2
ATOM      2  N   UNL     1      -2.985  -1.519   0.000  0.00  0.00    +0.176 N 
ATOM      3  O   UNL     1      -2.595  -2.967   0.000  0.00  0.00    +0.068 OA
ATOM      4  O   UNL     1      -4.434  -1.132   0.000  0.00  0.00    -0.554 OA
ENDBRANCH   1   2
TORSDOF 1