REMARK  Name = 13213
REMARK  2 active torsions:
REMARK  status: ('A' for Active; 'I' for Inactive)
REMARK    1  A    between atoms: C_9  and  C_11
REMARK    2  A    between atoms: C_10  and  C_12
REMARK                            x       y       z     vdW  Elec       q    Type
REMARK                         _______ _______ _______ _____ _____    ______ ____
ROOT
ATOM      1  N   UNL     1      -2.223  -3.650   0.000  0.00  0.00    -0.223 NA
ATOM      2  C   UNL     1      -3.522  -4.399   0.000  0.00  0.00    +0.075 A 
ATOM      3  C   UNL     1      -3.522  -5.899   0.000  0.00  0.00    +0.021 A 
ATOM      4  C   UNL     1      -2.223  -6.649   0.000  0.00  0.00    +0.050 A 
ATOM      5  C   UNL     1      -2.223  -8.149   0.000  0.00  0.00    +0.066 C 
ATOM      6  N   UNL     1      -0.924  -5.899   0.000  0.00  0.00    -0.228 NA
ATOM      7  C   UNL     1      -4.821  -6.649   0.000  0.00  0.00    +0.012 A 
ATOM      8  C   UNL     1      -6.120  -5.899   0.000  0.00  0.00    +0.001 A 
ATOM      9  C   UNL     1      -6.120  -4.399   0.000  0.00  0.00    +0.002 A 
ATOM     10  C   UNL     1      -4.821  -3.650   0.000  0.00  0.00    +0.028 A 
ATOM     11  C   UNL     1      -0.924  -4.399   0.000  0.00  0.00    +0.216 A 
ENDROOT
BRANCH  11  12
ATOM     12  C   UNL     1       0.375  -3.650   0.000  0.00  0.00    +0.279 C 
ATOM     13  N   UNL     1       0.375  -2.150   0.000  0.00  0.00    -0.323 N 
ATOM     14  H   UNL     1      -0.478  -1.657   0.000  0.00  0.00    +0.145 HD
ATOM     15  H   UNL     1       1.228  -1.657   0.000  0.00  0.00    +0.145 HD
ATOM     16  O   UNL     1       1.674  -4.399   0.000  0.00  0.00    -0.267 OA
ENDBRANCH  11  12
TORSDOF 1