REMARK  Name = 138389
REMARK  3 active torsions:
REMARK  status: ('A' for Active; 'I' for Inactive)
REMARK    1  A    between atoms: C_7  and  C_14
REMARK    2  A    between atoms: C_10  and  C_15
REMARK    3  A    between atoms: C_16  and  C_18
REMARK                            x       y       z     vdW  Elec       q    Type
REMARK                         _______ _______ _______ _____ _____    ______ ____
ROOT
ATOM      1  N   UNL     1       3.522   7.399   0.000  0.00  0.00    -0.260 N 
ATOM      2  C   UNL     1       3.522   8.899   0.000  0.00  0.00    +0.235 C 
ATOM      5  O   UNL     1       2.223   9.649   0.000  0.00  0.00    -0.274 OA
ATOM      6  C   UNL     1       4.821   6.649   0.000  0.00  0.00    +0.209 C 
ATOM      7  C   UNL     1       4.821   5.149   0.000  0.00  0.00    +0.235 C 
ATOM      8  O   UNL     1       6.120   4.399   0.000  0.00  0.00    -0.274 OA
ATOM      9  N   UNL     1       3.522   4.399   0.000  0.00  0.00    -0.283 N 
ATOM     10  H   UNL     1       3.522   2.900   0.000  0.00  0.00    +0.155 HD
ATOM     11  C   UNL     1       2.223   5.149   0.000  0.00  0.00    +0.055 A 
ATOM     12  C   UNL     1       0.924   4.399   0.000  0.00  0.00    +0.028 A 
ATOM     13  C   UNL     1      -0.375   5.149   0.000  0.00  0.00    -0.046 A 
ATOM     14  C   UNL     1      -1.674   4.399   0.000  0.00  0.00    +0.044 C 
ATOM     15  C   UNL     1      -0.375   6.649   0.000  0.00  0.00    -0.046 A 
ATOM     16  C   UNL     1      -1.674   7.399   0.000  0.00  0.00    +0.044 C 
ATOM     17  C   UNL     1       0.924   7.399   0.000  0.00  0.00    +0.029 A 
ATOM     18  C   UNL     1       2.223   6.649   0.000  0.00  0.00    +0.058 A 
ENDROOT
BRANCH   2   3
ATOM      3  C   UNL     1       4.821   9.649   0.000  0.00  0.00    +0.204 C 
ATOM      4 CL   UNL     1       4.821  11.150   0.000  0.00  0.00    -0.116 Cl
ENDBRANCH   2   3
TORSDOF 1