REMARK  Name = 205909
REMARK  7 active torsions:
REMARK  status: ('A' for Active; 'I' for Inactive)
REMARK    1  A    between atoms: C_3  and  N_15
REMARK    2  A    between atoms: C_6  and  O_12
REMARK    3  A    between atoms: C_11  and  C_19
REMARK    4  A    between atoms: O_12  and  C_13
REMARK    5  A    between atoms: C_13  and  C_14
REMARK    6  A    between atoms: N_15  and  C_16
REMARK    7  A    between atoms: C_16  and  N_18
REMARK                            x       y       z     vdW  Elec       q    Type
REMARK                         _______ _______ _______ _____ _____    ______ ____
ROOT
ATOM      7  C   UNL     1       6.770   7.774   0.000  0.00  0.00    +0.141 C 
ATOM      8  S   UNL     1       5.471   8.524   0.000  0.00  0.00    -0.018 S 
ENDROOT
BRANCH   7   5
ATOM      3  C   UNL     1       8.069  10.025   0.000  0.00  0.00    +0.285 C 
ATOM      4  O   UNL     1       6.770  10.775   0.000  0.00  0.00    -0.266 OA
ATOM      5  N   UNL     1       8.069   8.524   0.000  0.00  0.00    -0.261 N 
ATOM      6  H   UNL     1       8.921   8.032   0.000  0.00  0.00    +0.157 HD
BRANCH   3   2
ATOM      1  O   UNL     1       9.525  12.266   0.000  0.00  0.00    -0.458 OA
ATOM      2  C   UNL     1       9.368  10.775   0.000  0.00  0.00    +0.189 A 
ATOM     20  C   UNL     1      10.738  10.164   0.000  0.00  0.00    +0.054 A 
ATOM     21  C   UNL     1      11.742  11.279   0.000  0.00  0.00    +0.042 A 
ATOM     22  C   UNL     1      10.992  12.578   0.000  0.00  0.00    +0.196 A 
ENDBRANCH   3   2
ENDBRANCH   7   5
BRANCH   7   9
ATOM      9  N   UNL     1       6.770   6.274   0.000  0.00  0.00    -0.297 N 
ATOM     10  H   UNL     1       7.622   5.782   0.000  0.00  0.00    +0.154 HD
BRANCH   9  11
ATOM     11  C   UNL     1       5.471   5.524   0.000  0.00  0.00    +0.033 A 
ATOM     12  C   UNL     1       5.471   4.024   0.000  0.00  0.00    +0.027 A 
ATOM     13  C   UNL     1       4.172   3.275   0.000  0.00  0.00    +0.047 A 
ATOM     14  C   UNL     1       2.873   4.024   0.000  0.00  0.00    +0.121 A 
ATOM     18  C   UNL     1       2.873   5.524   0.000  0.00  0.00    +0.047 A 
ATOM     19  C   UNL     1       4.172   6.274   0.000  0.00  0.00    +0.027 A 
BRANCH  14  15
ATOM     15  O   UNL     1       1.574   3.275   0.000  0.00  0.00    -0.492 OA
BRANCH  15  16
ATOM     16  C   UNL     1       0.275   4.024   0.000  0.00  0.00    +0.225 C 
ATOM     17  C   UNL     1      -1.025   3.275   0.000  0.00  0.00    +0.048 C 
ENDBRANCH  15  16
ENDBRANCH  14  15
ENDBRANCH   9  11
ENDBRANCH   7   9
TORSDOF 6