REMARK  Name = 137112
REMARK  3 active torsions:
REMARK  status: ('A' for Active; 'I' for Inactive)
REMARK    1  A    between atoms: N_1  and  C_23
REMARK    2  A    between atoms: N_2  and  C_22
REMARK    3  A    between atoms: C_18  and  N_24
REMARK                            x       y       z     vdW  Elec       q    Type
REMARK                         _______ _______ _______ _____ _____    ______ ____
ROOT
ATOM      1  N   UNL     1       4.778  -3.197   0.000  0.00  0.00    -0.288 NA
ATOM      2  C   UNL     1       5.042  -1.720   0.000  0.00  0.00    +0.106 C 
ATOM      3  C   UNL     1       4.311  -2.110   0.000  0.00  0.00    +0.143 C 
ATOM      4  C   UNL     1       2.811  -2.110   0.000  0.00  0.00    +0.061 C 
ATOM      5  C   UNL     1       3.561  -3.409   0.000  0.00  0.00    +0.075 C 
ATOM      6  C   UNL     1       5.061  -3.409   0.000  0.00  0.00    +0.059 C 
ATOM      7  C   UNL     1       5.449  -4.858   0.000  0.00  0.00    -0.036 A 
ATOM      8  C   UNL     1       6.748  -5.608   0.000  0.00  0.00    -0.020 A 
ATOM      9  C   UNL     1       8.197  -5.220   0.000  0.00  0.00    +0.164 C 
ATOM     10  C   UNL     1       8.047  -4.858   0.000  0.00  0.00    +0.006 A 
ATOM     11  C   UNL     1       8.047  -3.358   0.000  0.00  0.00    +0.000 A 
ATOM     12  C   UNL     1       6.748  -2.608   0.000  0.00  0.00    +0.000 A 
ATOM     13  C   UNL     1       5.449  -3.358   0.000  0.00  0.00    +0.004 A 
ATOM     14  N   UNL     1       6.697  -5.220   0.000  0.00  0.00    -0.289 NA
ATOM     15  C   UNL     1       6.309  -6.668   0.000  0.00  0.00    +0.106 C 
ATOM     16  C   UNL     1       3.561  -0.811   0.000  0.00  0.00    -0.036 A 
ATOM     17  C   UNL     1       2.811   0.488   0.000  0.00  0.00    +0.004 A 
ATOM     18  C   UNL     1       3.561   1.787   0.000  0.00  0.00    +0.000 A 
ATOM     19  C   UNL     1       5.061   1.787   0.000  0.00  0.00    +0.000 A 
ATOM     20  C   UNL     1       5.811   0.488   0.000  0.00  0.00    +0.005 A 
ATOM     21  C   UNL     1       5.061  -0.811   0.000  0.00  0.00    -0.026 A 
ATOM     22  C   UNL     1       8.947  -3.921   0.000  0.00  0.00    +0.368 C 
ATOM     26  C   UNL     1       5.811  -2.110   0.000  0.00  0.00    +0.096 C 
ENDROOT
BRANCH  22  23
ATOM     23  N   UNL     1       7.640  -4.655   0.000  0.00  0.00    +0.045 N 
ATOM     24  O   UNL     1       7.622  -6.155   0.000  0.00  0.00    +0.035 OA
ATOM     25  O   UNL     1       6.349  -3.890   0.000  0.00  0.00    -0.581 OA
ENDBRANCH  22  23
TORSDOF 1