REMARK  Name = 15571
REMARK  5 active torsions:
REMARK  status: ('A' for Active; 'I' for Inactive)
REMARK    1  A    between atoms: C_4  and  AS_8
REMARK    2  A    between atoms: C_5  and  C_11
REMARK    3  A    between atoms: AS_8  and  O_9
REMARK    4  A    between atoms: AS_8  and  O_10
REMARK    5  A    between atoms: C_11  and  O_13
REMARK                            x       y       z     vdW  Elec       q    Type
REMARK                         _______ _______ _______ _____ _____    ______ ____
ROOT
ATOM      7  C   UNL     1      -5.660  -2.949   0.000  0.00  0.00    +0.000 A 
ATOM      8  C   UNL     1      -5.660  -4.449   0.000  0.00  0.00    +0.000 A 
ATOM     13  C   UNL     1      -6.959  -5.199   0.000  0.00  0.00    +0.000 A 
ATOM     14  C   UNL     1      -8.258  -4.449   0.000  0.00  0.00    +0.000 A 
ATOM     15  C   UNL     1      -8.258  -2.949   0.000  0.00  0.00    +0.000 A 
ATOM     16  C   UNL     1      -6.959  -2.199   0.000  0.00  0.00    +0.000 A 
ENDROOT
BRANCH   7   2
ATOM      1  O   UNL     1      -2.456  -2.772   0.000  0.00  0.00    +0.000 OA
ATOM      2 AS   UNL     1      -3.516  -1.711   0.000  0.00  0.00    +0.000 As
BRANCH   2   3
ATOM      3  O   UNL     1      -5.016  -1.711   0.000  0.00  0.00    +0.000 OA
ATOM      4  H   UNL     1      -5.501  -0.871   0.000  0.00  0.00    +0.000 HD
ENDBRANCH   2   3
BRANCH   2   5
ATOM      5  O   UNL     1      -3.128  -0.263   0.000  0.00  0.00    +0.000 OA
ATOM      6  H   UNL     1      -2.191  -0.011   0.000  0.00  0.00    +0.000 HD
ENDBRANCH   2   5
ENDBRANCH   7   2
BRANCH   8   9
ATOM      9  C   UNL     1      -4.361  -5.199   0.000  0.00  0.00    +0.000 C 
ATOM     12  O   UNL     1      -3.062  -4.449   0.000  0.00  0.00    +0.000 OA
BRANCH   9  10
ATOM     10  O   UNL     1      -4.361  -6.699   0.000  0.00  0.00    +0.000 OA
ATOM     11  H   UNL     1      -5.172  -7.167   0.000  0.00  0.00    +0.000 HD
ENDBRANCH   9  10
ENDBRANCH   8   9
TORSDOF 5