REMARK  Name = 203837
REMARK  2 active torsions:
REMARK  status: ('A' for Active; 'I' for Inactive)
REMARK    1  A    between atoms: C_3  and  C_16
REMARK    2  A    between atoms: C_6  and  N_20
REMARK                            x       y       z     vdW  Elec       q    Type
REMARK                         _______ _______ _______ _____ _____    ______ ____
ROOT
ATOM      1  O   UNL     1      -0.439  -0.446   0.000  0.00  0.00    -0.358 OA
ATOM      2  C   UNL     1       0.311  -1.745   0.000  0.00  0.00    +0.136 A 
ATOM      3  C   UNL     1       1.803  -1.902   0.000  0.00  0.00    +0.089 C 
ATOM      4  C   UNL     1      -0.693  -2.860   0.000  0.00  0.00    +0.091 A 
ATOM      5  C   UNL     1      -2.063  -2.250   0.000  0.00  0.00    +0.169 A 
ATOM      6  N   UNL     1      -3.362  -3.000   0.000  0.00  0.00    -0.251 N 
ATOM      7  H   UNL     1      -3.362  -3.984   0.000  0.00  0.00    +0.158 HD
ATOM      8  C   UNL     1      -4.661  -2.250   0.000  0.00  0.00    +0.309 C 
ATOM      9  N   UNL     1      -5.960  -3.000   0.000  0.00  0.00    -0.269 N 
ATOM     10  H   UNL     1      -6.813  -2.508   0.000  0.00  0.00    +0.156 HD
ATOM     21  O   UNL     1      -4.661  -0.750   0.000  0.00  0.00    -0.252 OA
ATOM     22  N   UNL     1      -1.906  -0.758   0.000  0.00  0.00    -0.063 NA
ENDROOT
BRANCH   9  11
ATOM     11  C   UNL     1      -5.960  -4.500   0.000  0.00  0.00    +0.042 A 
ATOM     12  C   UNL     1      -7.259  -5.250   0.000  0.00  0.00    +0.003 A 
ATOM     13  C   UNL     1      -8.558  -4.500   0.000  0.00  0.00    +0.010 A 
ATOM     14  C   UNL     1      -9.857  -5.250   0.000  0.00  0.00    +0.001 A 
ATOM     15  C   UNL     1      -9.857  -6.750   0.000  0.00  0.00    +0.001 A 
ATOM     16  C   UNL     1      -8.558  -7.500   0.000  0.00  0.00    +0.008 A 
ATOM     17  C   UNL     1      -7.259  -6.750   0.000  0.00  0.00    -0.016 A 
ATOM     18  C   UNL     1      -5.960  -7.500   0.000  0.00  0.00    +0.008 A 
ATOM     19  C   UNL     1      -4.661  -6.750   0.000  0.00  0.00    +0.002 A 
ATOM     20  C   UNL     1      -4.661  -5.250   0.000  0.00  0.00    +0.024 A 
ENDBRANCH   9  11
TORSDOF 1