REMARK  Name = 203912
REMARK  5 active torsions:
REMARK  status: ('A' for Active; 'I' for Inactive)
REMARK    1  A    between atoms: O_3  and  C_13
REMARK    2  A    between atoms: O_3  and  C_18
REMARK    3  A    between atoms: C_8  and  N_21
REMARK    4  A    between atoms: C_9  and  N_22
REMARK    5  A    between atoms: C_18  and  C_19
REMARK                            x       y       z     vdW  Elec       q    Type
REMARK                         _______ _______ _______ _____ _____    ______ ____
ROOT
ATOM      9  C   UNL     1       5.571  -3.650   0.000  0.00  0.00    +0.255 C 
ATOM     10  N   UNL     1       5.571  -5.149   0.000  0.00  0.00    -0.281 N 
ATOM     11  H   UNL     1       4.719  -5.642   0.000  0.00  0.00    +0.155 HD
ATOM     22  O   UNL     1       6.870  -2.900   0.000  0.00  0.00    -0.272 OA
ENDROOT
BRANCH  10  12
ATOM     12  C   UNL     1       6.870  -5.899   0.000  0.00  0.00    +0.052 A 
ATOM     13  C   UNL     1       6.870  -7.399   0.000  0.00  0.00    +0.069 A 
ATOM     14  C   UNL     1       8.169  -8.149   0.000  0.00  0.00    +0.106 A 
ATOM     15  C   UNL     1       9.468  -7.399   0.000  0.00  0.00    +0.275 A 
ATOM     19  C   UNL     1       9.468  -5.899   0.000  0.00  0.00    +0.086 A 
ATOM     20 CL   UNL     1       5.571  -8.149   0.000  0.00  0.00    -0.081 Cl
ATOM     21  C   UNL     1       8.169  -5.149   0.000  0.00  0.00    +0.031 A 
BRANCH  15  16
ATOM     16  N   UNL     1      10.767  -8.149   0.000  0.00  0.00    +0.080 N 
ATOM     17  O   UNL     1      10.767  -9.649   0.000  0.00  0.00    +0.041 OA
ATOM     18  O   UNL     1      12.066  -7.399   0.000  0.00  0.00    -0.576 OA
ENDBRANCH  15  16
ENDBRANCH  10  12
BRANCH   9   8
ATOM      8  C   UNL     1       4.272  -2.900   0.000  0.00  0.00    +0.325 C 
BRANCH   8   7
ATOM      7  O   UNL     1       4.272  -1.400   0.000  0.00  0.00    -0.481 OA
BRANCH   7   6
ATOM      1 CL   UNL     1       9.468  -1.400   0.000  0.00  0.00    -0.082 Cl
ATOM      2  C   UNL     1       8.169  -0.649   0.000  0.00  0.00    +0.063 A 
ATOM      3  C   UNL     1       8.169   0.851   0.000  0.00  0.00    +0.061 A 
ATOM      4  C   UNL     1       6.870   1.601   0.000  0.00  0.00    +0.045 A 
ATOM      5  C   UNL     1       5.571   0.851   0.000  0.00  0.00    +0.084 A 
ATOM      6  C   UNL     1       5.571  -0.649   0.000  0.00  0.00    +0.141 A 
ATOM     23 CL   UNL     1       4.272   1.601   0.000  0.00  0.00    -0.080 Cl
ATOM     24 CL   UNL     1       9.468   1.601   0.000  0.00  0.00    -0.082 Cl
ATOM     25  C   UNL     1       6.870  -1.400   0.000  0.00  0.00    +0.068 A 
ENDBRANCH   7   6
ENDBRANCH   8   7
ENDBRANCH   9   8
TORSDOF 5