REMARK  Name = 121781
REMARK  5 active torsions:
REMARK  status: ('A' for Active; 'I' for Inactive)
REMARK    1  A    between atoms: C_1  and  N_17
REMARK    2  A    between atoms: C_6  and  C_7
REMARK    3  A    between atoms: C_7  and  C_10
REMARK    4  A    between atoms: C_10  and  C_11
REMARK    5  A    between atoms: C_16  and  N_18
REMARK                            x       y       z     vdW  Elec       q    Type
REMARK                         _______ _______ _______ _____ _____    ______ ____
ROOT
ATOM      8  C   UNL     1       2.190  -8.098   0.000  0.00  0.00    +0.233 C 
ATOM      9  O   UNL     1       2.940  -9.398   0.000  0.00  0.00    -0.283 OA
ENDROOT
BRANCH   8   7
ATOM      1  C   UNL     1      -2.310  -8.098   0.000  0.00  0.00    +0.025 A 
ATOM      5  C   UNL     1      -1.560  -9.398   0.000  0.00  0.00    +0.023 A 
ATOM      6  C   UNL     1      -0.060  -9.398   0.000  0.00  0.00    +0.013 A 
ATOM      7  C   UNL     1       0.690  -8.098   0.000  0.00  0.00    +0.026 A 
ATOM     21  C   UNL     1      -0.060  -6.800   0.000  0.00  0.00    +0.013 A 
ATOM     22  C   UNL     1      -1.560  -6.800   0.000  0.00  0.00    +0.023 A 
BRANCH   1   2
ATOM      2  N   UNL     1      -3.810  -8.098   0.000  0.00  0.00    -0.358 N 
ATOM      3  H   UNL     1      -4.302  -8.951   0.000  0.00  0.00    +0.142 HD
ATOM      4  H   UNL     1      -4.302  -7.246   0.000  0.00  0.00    +0.142 HD
ENDBRANCH   1   2
ENDBRANCH   8   7
BRANCH   8  10
ATOM     10  C   UNL     1       2.940  -6.800   0.000  0.00  0.00    +0.233 C 
ATOM     20  O   UNL     1       4.440  -6.800   0.000  0.00  0.00    -0.283 OA
BRANCH  10  11
ATOM     11  C   UNL     1       2.190  -5.500   0.000  0.00  0.00    +0.026 A 
ATOM     12  C   UNL     1       2.940  -4.201   0.000  0.00  0.00    +0.013 A 
ATOM     13  C   UNL     1       2.190  -2.902   0.000  0.00  0.00    +0.023 A 
ATOM     14  C   UNL     1       0.690  -2.902   0.000  0.00  0.00    +0.025 A 
ATOM     18  C   UNL     1      -0.060  -4.201   0.000  0.00  0.00    +0.023 A 
ATOM     19  C   UNL     1       0.690  -5.500   0.000  0.00  0.00    +0.013 A 
BRANCH  14  15
ATOM     15  N   UNL     1      -0.060  -1.603   0.000  0.00  0.00    -0.358 N 
ATOM     16  H   UNL     1      -1.044  -1.603   0.000  0.00  0.00    +0.142 HD
ATOM     17  H   UNL     1       0.433  -0.751   0.000  0.00  0.00    +0.142 HD
ENDBRANCH  14  15
ENDBRANCH  10  11
ENDBRANCH   8  10
TORSDOF 5