REMARK  Name = 17055
REMARK  4 active torsions:
REMARK  status: ('A' for Active; 'I' for Inactive)
REMARK    1  A    between atoms: C_5  and  O_18
REMARK    2  A    between atoms: C_10  and  C_11
REMARK    3  A    between atoms: O_18  and  C_19
REMARK    4  A    between atoms: C_19  and  C_21
REMARK                            x       y       z     vdW  Elec       q    Type
REMARK                         _______ _______ _______ _____ _____    ______ ____
ROOT
ATOM      1  O   UNL     1      -5.946  -0.750   0.000  0.00  0.00    -0.422 OA
ATOM      2  C   UNL     1      -4.647  -1.500   0.000  0.00  0.00    +0.345 A 
ATOM      3  C   UNL     1      -4.647  -3.000   0.000  0.00  0.00    +0.067 A 
ATOM     10  C   UNL     1      -5.946  -3.750   0.000  0.00  0.00    +0.027 A 
ATOM     11  C   UNL     1      -7.245  -3.000   0.000  0.00  0.00    +0.018 A 
ATOM     12  C   UNL     1      -8.544  -3.750   0.000  0.00  0.00    +0.015 A 
ATOM     13  C   UNL     1      -9.843  -3.000   0.000  0.00  0.00    +0.047 A 
ATOM     14  C   UNL     1      -9.843  -1.500   0.000  0.00  0.00    +0.135 A 
ATOM     19  C   UNL     1      -8.544  -0.750   0.000  0.00  0.00    +0.093 A 
ATOM     20  O   UNL     1      -3.348  -0.750   0.000  0.00  0.00    -0.245 OA
ATOM     21  C   UNL     1      -7.245  -1.500   0.000  0.00  0.00    +0.143 A 
ENDROOT
BRANCH   3   4
ATOM      4  C   UNL     1      -3.348  -3.750   0.000  0.00  0.00    -0.011 A 
ATOM      5  C   UNL     1      -2.049  -3.000   0.000  0.00  0.00    +0.009 A 
ATOM      6  C   UNL     1      -0.750  -3.750   0.000  0.00  0.00    +0.001 A 
ATOM      7  C   UNL     1      -0.750  -5.250   0.000  0.00  0.00    +0.000 A 
ATOM      8  C   UNL     1      -2.049  -6.000   0.000  0.00  0.00    +0.001 A 
ATOM      9  C   UNL     1      -3.348  -5.250   0.000  0.00  0.00    +0.009 A 
ENDBRANCH   3   4
BRANCH  14  15
ATOM     15  O   UNL     1     -11.142  -0.750   0.000  0.00  0.00    -0.426 OA
BRANCH  15  16
ATOM     16  C   UNL     1     -12.441  -1.500   0.000  0.00  0.00    +0.309 C 
ATOM     17  C   UNL     1     -12.441  -3.000   0.000  0.00  0.00    +0.136 C 
ATOM     18  O   UNL     1     -13.740  -0.750   0.000  0.00  0.00    -0.251 OA
ENDBRANCH  15  16
ENDBRANCH  14  15
TORSDOF 3