REMARK  Name = 158959
REMARK  2 active torsions:
REMARK  status: ('A' for Active; 'I' for Inactive)
REMARK    1  A    between atoms: C_4  and  C_20
REMARK    2  A    between atoms: C_11  and  N_19
REMARK                            x       y       z     vdW  Elec       q    Type
REMARK                         _______ _______ _______ _____ _____    ______ ____
ROOT
ATOM      9  C   UNL     1      -6.870   1.601   0.000  0.00  0.00    +0.250 C 
ATOM     10  O   UNL     1      -6.870   3.100   0.000  0.00  0.00    -0.270 OA
ATOM     11  N   UNL     1      -8.169   0.851   0.000  0.00  0.00    -0.281 N 
ATOM     12  H   UNL     1      -8.169  -0.134   0.000  0.00  0.00    +0.155 HD
ENDROOT
BRANCH  11  13
ATOM     13  C   UNL     1      -9.468   1.601   0.000  0.00  0.00    +0.034 A 
ATOM     14  C   UNL     1     -10.767   0.851   0.000  0.00  0.00    +0.024 A 
ATOM     15  C   UNL     1     -12.066   1.601   0.000  0.00  0.00    +0.010 A 
ATOM     16  C   UNL     1     -12.066   3.100   0.000  0.00  0.00    -0.018 A 
ATOM     17  C   UNL     1     -13.365   3.850   0.000  0.00  0.00    +0.008 A 
ATOM     18  C   UNL     1     -13.365   5.351   0.000  0.00  0.00    +0.001 A 
ATOM     19  C   UNL     1     -12.066   6.101   0.000  0.00  0.00    +0.001 A 
ATOM     20  C   UNL     1     -10.767   5.351   0.000  0.00  0.00    +0.008 A 
ATOM     21  C   UNL     1     -10.767   3.850   0.000  0.00  0.00    -0.016 A 
ATOM     22  C   UNL     1      -9.468   3.100   0.000  0.00  0.00    +0.031 A 
ENDBRANCH  11  13
BRANCH   9   8
ATOM      1 CL   UNL     1      -6.870  -1.400   0.000  0.00  0.00    -0.083 Cl
ATOM      2  C   UNL     1      -5.571  -0.649   0.000  0.00  0.00    +0.054 A 
ATOM      3  C   UNL     1      -4.272  -1.400   0.000  0.00  0.00    +0.040 A 
ATOM      4  C   UNL     1      -2.973  -0.649   0.000  0.00  0.00    +0.042 A 
ATOM      5  C   UNL     1      -2.973   0.851   0.000  0.00  0.00    +0.021 A 
ATOM      6  C   UNL     1      -4.272   1.601   0.000  0.00  0.00    +0.016 A 
ATOM      7 CL   UNL     1      -1.674  -1.400   0.000  0.00  0.00    -0.083 Cl
ATOM      8  C   UNL     1      -5.571   0.851   0.000  0.00  0.00    +0.055 A 
ENDBRANCH   9   8
TORSDOF 2