REMARK  Name = 169409
REMARK  12 active torsions:
REMARK  status: ('A' for Active; 'I' for Inactive)
REMARK    1  A    between atoms: O_1  and  C_20
REMARK    2  A    between atoms: O_1  and  C_22
REMARK    3  A    between atoms: N_2  and  C_24
REMARK    4  A    between atoms: C_7  and  C_20
REMARK    5  A    between atoms: C_8  and  O_14
REMARK    6  A    between atoms: C_10  and  O_16
REMARK    7  A    between atoms: C_11  and  O_18
REMARK    8  A    between atoms: O_14  and  C_15
REMARK    9  A    between atoms: O_16  and  C_17
REMARK   10  A    between atoms: O_18  and  C_19
REMARK   11  A    between atoms: C_22  and  C_23
REMARK   12  A    between atoms: C_22  and  C_24
REMARK                            x       y       z     vdW  Elec       q    Type
REMARK                         _______ _______ _______ _____ _____    ______ ____
ROOT
ATOM     11  C   UNL     1       8.819   0.275   0.000  0.00  0.00    +0.340 C 
ATOM     12  O   UNL     1      10.118   1.025   0.000  0.00  0.00    -0.245 OA
ENDROOT
BRANCH  11  13
ATOM     13  C   UNL     1       7.520   1.025   0.000  0.00  0.00    +0.066 A 
ATOM     14  C   UNL     1       6.221   0.275   0.000  0.00  0.00    +0.064 A 
ATOM     15  C   UNL     1       4.922   1.025   0.000  0.00  0.00    +0.166 A 
ATOM     18  C   UNL     1       4.922   2.525   0.000  0.00  0.00    +0.204 A 
ATOM     21  C   UNL     1       6.221   3.275   0.000  0.00  0.00    +0.166 A 
ATOM     24  C   UNL     1       7.520   2.525   0.000  0.00  0.00    +0.064 A 
BRANCH  15  16
ATOM     16  O   UNL     1       3.623   0.275   0.000  0.00  0.00    -0.491 OA
ATOM     17  C   UNL     1       2.324   1.025   0.000  0.00  0.00    +0.277 C 
ENDBRANCH  15  16
BRANCH  18  19
ATOM     19  O   UNL     1       3.623   3.275   0.000  0.00  0.00    -0.488 OA
ATOM     20  C   UNL     1       3.623   4.774   0.000  0.00  0.00    +0.277 C 
ENDBRANCH  18  19
BRANCH  21  22
ATOM     22  O   UNL     1       6.221   4.774   0.000  0.00  0.00    -0.491 OA
ATOM     23  C   UNL     1       4.922   5.524   0.000  0.00  0.00    +0.277 C 
ENDBRANCH  21  22
ENDBRANCH  11  13
BRANCH  11   1
ATOM      1  O   UNL     1       8.819  -1.226   0.000  0.00  0.00    -0.457 OA
BRANCH   1   2
ATOM      2  C   UNL     1      10.118  -1.976   0.000  0.00  0.00    +0.188 C 
ATOM     10  C   UNL     1      11.417  -1.226   0.000  0.00  0.00    +0.053 C 
BRANCH   2   3
ATOM      3  C   UNL     1      10.118  -3.475   0.000  0.00  0.00    +0.128 C 
BRANCH   3   4
ATOM      4  N   UNL     1      11.417  -4.226   0.000  0.00  0.00    -0.295 NA
ATOM      5  C   UNL     1      11.417  -5.726   0.000  0.00  0.00    +0.112 C 
ATOM      6  C   UNL     1      12.716  -6.476   0.000  0.00  0.00    +0.175 C 
ATOM      7  O   UNL     1      14.015  -5.726   0.000  0.00  0.00    -0.377 OA
ATOM      8  C   UNL     1      14.015  -4.226   0.000  0.00  0.00    +0.175 C 
ATOM      9  C   UNL     1      12.716  -3.475   0.000  0.00  0.00    +0.112 C 
ENDBRANCH   3   4
ENDBRANCH   2   3
ENDBRANCH   1   2
ENDBRANCH  11   1
TORSDOF 8