REMARK  Name = 11023
REMARK  5 active torsions:
REMARK  status: ('A' for Active; 'I' for Inactive)
REMARK    1  A    between atoms: C_2  and  N_19
REMARK    2  A    between atoms: C_5  and  C_20
REMARK    3  A    between atoms: C_8  and  N_14
REMARK    4  A    between atoms: C_10  and  C_13
REMARK    5  A    between atoms: C_15  and  C_17
REMARK                            x       y       z     vdW  Elec       q    Type
REMARK                         _______ _______ _______ _____ _____    ______ ____
ROOT
ATOM      3  N   UNL     1      -1.674  -4.399   0.000  0.00  0.00    -0.278 N 
ATOM      4  H   UNL     1      -2.480  -3.835   0.000  0.00  0.00    +0.155 HD
ATOM      5  C   UNL     1      -1.674  -5.899   0.000  0.00  0.00    +0.303 C 
ATOM      6  O   UNL     1      -2.973  -6.649   0.000  0.00  0.00    -0.265 OA
ENDROOT
BRANCH   3   2
ATOM      1  C   UNL     1       0.885  -4.851   0.000  0.00  0.00    +0.023 A 
ATOM      2  C   UNL     1      -0.265  -3.886   0.000  0.00  0.00    +0.037 A 
ATOM     18  C   UNL     1      -0.004  -2.409   0.000  0.00  0.00    -0.029 A 
ATOM     19  C   UNL     1      -1.153  -1.445   0.000  0.00  0.00    +0.045 C 
ATOM     20  C   UNL     1       1.406  -1.896   0.000  0.00  0.00    +0.005 A 
ATOM     21  C   UNL     1       2.555  -2.860   0.000  0.00  0.00    +0.000 A 
ATOM     22  C   UNL     1       2.294  -4.338   0.000  0.00  0.00    +0.002 A 
ENDBRANCH   3   2
BRANCH   5   7
ATOM      7  C   UNL     1      -0.375  -6.649   0.000  0.00  0.00    +0.303 C 
ATOM      8  O   UNL     1       0.924  -5.899   0.000  0.00  0.00    -0.265 OA
ATOM      9  N   UNL     1      -0.375  -8.149   0.000  0.00  0.00    -0.278 N 
ATOM     10  H   UNL     1       0.478  -8.642   0.000  0.00  0.00    +0.155 HD
BRANCH   9  11
ATOM     11  C   UNL     1      -1.674  -8.899   0.000  0.00  0.00    +0.037 A 
ATOM     12  C   UNL     1      -1.674 -10.400   0.000  0.00  0.00    -0.029 A 
ATOM     13  C   UNL     1      -0.375 -11.150   0.000  0.00  0.00    +0.045 C 
ATOM     14  C   UNL     1      -2.973 -11.150   0.000  0.00  0.00    +0.005 A 
ATOM     15  C   UNL     1      -4.272 -10.400   0.000  0.00  0.00    +0.000 A 
ATOM     16  C   UNL     1      -4.272  -8.899   0.000  0.00  0.00    +0.002 A 
ATOM     17  C   UNL     1      -2.973  -8.149   0.000  0.00  0.00    +0.023 A 
ENDBRANCH   9  11
ENDBRANCH   5   7
TORSDOF 3