REMARK  Name = 110332
REMARK  7 active torsions:
REMARK  status: ('A' for Active; 'I' for Inactive)
REMARK    1  A    between atoms: C_3  and  N_19
REMARK    2  A    between atoms: C_4  and  O_20
REMARK    3  A    between atoms: C_7  and  C_13
REMARK    4  A    between atoms: C_7  and  N_15
REMARK    5  A    between atoms: N_15  and  O_16
REMARK    6  A    between atoms: O_20  and  C_21
REMARK    7  A    between atoms: C_21  and  C_22
REMARK                            x       y       z     vdW  Elec       q    Type
REMARK                         _______ _______ _______ _____ _____    ______ ____
ROOT
ATOM      3  N   UNL     1      -9.861  -0.486   0.000  0.00  0.00    -0.268 N 
ATOM      4  H   UNL     1     -10.714  -0.978   0.000  0.00  0.00    +0.156 HD
ATOM      5  C   UNL     1      -9.861   1.014   0.000  0.00  0.00    +0.331 C 
ATOM      6  O   UNL     1      -8.562   1.764   0.000  0.00  0.00    -0.250 OA
ATOM      7  N   UNL     1     -11.160   1.764   0.000  0.00  0.00    -0.147 N 
ENDROOT
BRANCH   3   2
ATOM      1  C   UNL     1      -7.263  -0.486   0.000  0.00  0.00    +0.027 A 
ATOM      2  C   UNL     1      -8.562  -1.236   0.000  0.00  0.00    +0.035 A 
ATOM     18  C   UNL     1      -8.562  -2.736   0.000  0.00  0.00    +0.027 A 
ATOM     19  C   UNL     1      -7.263  -3.486   0.000  0.00  0.00    +0.047 A 
ATOM     20  C   UNL     1      -5.964  -2.736   0.000  0.00  0.00    +0.121 A 
ATOM     24  C   UNL     1      -5.964  -1.236   0.000  0.00  0.00    +0.047 A 
BRANCH  20  21
ATOM     21  O   UNL     1      -4.665  -3.486   0.000  0.00  0.00    -0.492 OA
BRANCH  21  22
ATOM     22  C   UNL     1      -3.366  -2.736   0.000  0.00  0.00    +0.225 C 
ATOM     23  C   UNL     1      -2.067  -3.486   0.000  0.00  0.00    +0.048 C 
ENDBRANCH  21  22
ENDBRANCH  20  21
ENDBRANCH   3   2
BRANCH   7  10
ATOM     10  C   UNL     1     -12.459   1.014   0.000  0.00  0.00    +0.151 C 
ATOM     13  C   UNL     1     -11.495  -0.135   0.000  0.00  0.00    +0.044 C 
ATOM     14  C   UNL     1     -12.008  -1.545   0.000  0.00  0.00    +0.003 C 
ATOM     15  C   UNL     1     -13.485  -1.805   0.000  0.00  0.00    +0.000 C 
ATOM     16  C   UNL     1     -14.450  -0.656   0.000  0.00  0.00    +0.003 C 
ATOM     17  C   UNL     1     -13.937   0.753   0.000  0.00  0.00    +0.044 C 
BRANCH  10  11
ATOM     11  C   UNL     1     -12.972   2.423   0.000  0.00  0.00    +0.091 C 
ATOM     12  N   UNL     1     -13.485   3.833   0.000  0.00  0.00    -0.194 NA
ENDBRANCH  10  11
ENDBRANCH   7  10
BRANCH   7   8
ATOM      8  O   UNL     1     -11.160   3.264   0.000  0.00  0.00    -0.290 OA
ATOM      9  H   UNL     1     -10.320   3.749   0.000  0.00  0.00    +0.242 HD
ENDBRANCH   7   8
TORSDOF 6