REMARK  Name = 205843
REMARK  5 active torsions:
REMARK  status: ('A' for Active; 'I' for Inactive)
REMARK    1  A    between atoms: C_2  and  C_12
REMARK    2  A    between atoms: C_4  and  N_14
REMARK    3  A    between atoms: C_5  and  C_13
REMARK    4  A    between atoms: C_11  and  C_18
REMARK    5  A    between atoms: N_17  and  C_18
REMARK                            x       y       z     vdW  Elec       q    Type
REMARK                         _______ _______ _______ _____ _____    ______ ____
ROOT
ATOM      4  N   UNL     1       5.946  -4.804   0.000  0.00  0.00    -0.292 N 
ATOM      5  H   UNL     1       6.799  -5.296   0.000  0.00  0.00    +0.151 HD
ATOM      6  C   UNL     1       4.647  -5.554   0.000  0.00  0.00    +0.304 C 
ATOM      7  O   UNL     1       3.348  -4.804   0.000  0.00  0.00    -0.252 OA
ATOM      8  N   UNL     1       4.647  -7.054   0.000  0.00  0.00    -0.269 N 
ATOM      9  H   UNL     1       5.500  -7.546   0.000  0.00  0.00    +0.156 HD
ENDROOT
BRANCH   8  10
ATOM     10  C   UNL     1       3.348  -7.804   0.000  0.00  0.00    +0.041 A 
ATOM     11  C   UNL     1       3.348  -9.304   0.000  0.00  0.00    -0.029 A 
ATOM     12  C   UNL     1       4.647 -10.054   0.000  0.00  0.00    +0.045 C 
ATOM     13  C   UNL     1       2.049 -10.054   0.000  0.00  0.00    +0.005 A 
ATOM     14  C   UNL     1       0.750  -9.304   0.000  0.00  0.00    +0.001 A 
ATOM     15  C   UNL     1       0.750  -7.804   0.000  0.00  0.00    +0.005 A 
ATOM     16  C   UNL     1       2.049  -7.054   0.000  0.00  0.00    -0.029 A 
ATOM     17  C   UNL     1       2.049  -5.554   0.000  0.00  0.00    +0.045 C 
ENDBRANCH   8  10
BRANCH   4   3
ATOM      3  C   UNL     1       5.946  -3.304   0.000  0.00  0.00    +0.180 C 
BRANCH   3   2
ATOM      1  O   UNL     1       3.277  -3.164   0.000  0.00  0.00    -0.466 OA
ATOM      2  C   UNL     1       4.647  -2.554   0.000  0.00  0.00    +0.122 A 
ATOM     18  C   UNL     1       4.490  -1.062   0.000  0.00  0.00    +0.046 A 
ATOM     19  C   UNL     1       3.023  -0.750   0.000  0.00  0.00    +0.041 A 
ATOM     20  C   UNL     1       2.273  -2.049   0.000  0.00  0.00    +0.195 A 
ENDBRANCH   3   2
ENDBRANCH   4   3
TORSDOF 3