REMARK  Name = 186067
REMARK  7 active torsions:
REMARK  status: ('A' for Active; 'I' for Inactive)
REMARK    1  A    between atoms: N_1  and  C_26
REMARK    2  A    between atoms: C_11  and  C_24
REMARK    3  A    between atoms: O_18  and  C_19
REMARK    4  A    between atoms: C_19  and  CA_20
REMARK    5  A    between atoms: CA_20  and  C_21
REMARK    6  A    between atoms: CA_20  and  N_23
REMARK    7  A    between atoms: C_21  and  C_22
REMARK                            x       y       z     vdW  Elec       q    Type
REMARK                         _______ _______ _______ _____ _____    ______ ____
ROOT
ATOM      1  N   UNL     1       4.647   2.250   0.000  0.00  0.00    -0.297 NA
ATOM      2  C   UNL     1       4.647   0.750   0.000  0.00  0.00    +0.105 C 
ATOM      3  C   UNL     1       5.946   3.000   0.000  0.00  0.00    +0.091 C 
ATOM      4  C   UNL     1       7.245   2.250   0.000  0.00  0.00    +0.061 C 
ATOM      5  C   UNL     1       8.544   3.000   0.000  0.00  0.00    -0.020 A 
ATOM      6  C   UNL     1      10.154   2.890   0.000  0.00  0.00    +0.087 A 
ATOM      7  N   UNL     1      10.904   4.189   0.000  0.00  0.00    -0.360 N 
ATOM      8  H   UNL     1      12.391   4.385   0.000  0.00  0.00    +0.165 HD
ATOM      9  C   UNL     1       9.843   5.250   0.000  0.00  0.00    +0.047 A 
ATOM     10  C   UNL     1       9.843   6.750   0.000  0.00  0.00    +0.026 A 
ATOM     11  C   UNL     1       8.544   7.500   0.000  0.00  0.00    +0.003 A 
ATOM     12  C   UNL     1       7.245   6.750   0.000  0.00  0.00    +0.009 A 
ATOM     13  C   UNL     1       7.245   5.250   0.000  0.00  0.00    -0.011 A 
ATOM     14  C   UNL     1       8.544   4.500   0.000  0.00  0.00    +0.010 A 
ATOM     15  C   UNL     1       5.946   4.500   0.000  0.00  0.00    -0.025 C 
ATOM     16  C   UNL     1       4.647   5.250   0.000  0.00  0.00    -0.007 C 
ATOM     17  C   UNL     1       3.348   4.500   0.000  0.00  0.00    +0.112 C 
ATOM     28  C   UNL     1       3.348   3.000   0.000  0.00  0.00    +0.101 C 
ENDROOT
BRANCH  17  18
ATOM     18  C   UNL     1       2.049   5.250   0.000  0.00  0.00    +0.221 C 
ATOM     19  O   UNL     1       0.750   4.500   0.000  0.00  0.00    -0.275 OA
ATOM     20  N   UNL     1       2.049   6.750   0.000  0.00  0.00    -0.310 N 
ATOM     21  H   UNL     1       1.196   7.242   0.000  0.00  0.00    +0.149 HD
BRANCH  20  22
ATOM     22  CA  UNL     1       3.348   7.500   0.000  0.00  0.00    +0.098 C 
BRANCH  22  23
ATOM     23  C   UNL     1       4.647   6.750   0.000  0.00  0.00    +0.021 C 
ATOM     24  C   UNL     1       5.946   7.500   0.000  0.00  0.00    +0.006 C 
ENDBRANCH  22  23
BRANCH  22  25
ATOM     25  C   UNL     1       3.348   9.000   0.000  0.00  0.00    +0.178 C 
BRANCH  25  26
ATOM     26  O   UNL     1       4.647   9.750   0.000  0.00  0.00    -0.393 OA
ATOM     27  H   UNL     1       5.487   9.265   0.000  0.00  0.00    +0.209 HD
ENDBRANCH  25  26
ENDBRANCH  22  25
ENDBRANCH  20  22
ENDBRANCH  17  18
TORSDOF 5