REMARK  Name = 157767
REMARK  6 active torsions:
REMARK  status: ('A' for Active; 'I' for Inactive)
REMARK    1  A    between atoms: C_6  and  C_13
REMARK    2  A    between atoms: C_7  and  C_11
REMARK    3  A    between atoms: O_9  and  C_10
REMARK    4  A    between atoms: O_9  and  C_11
REMARK    5  A    between atoms: C_13  and  O_15
REMARK    6  A    between atoms: O_15  and  C_16
REMARK                            x       y       z     vdW  Elec       q    Type
REMARK                         _______ _______ _______ _____ _____    ______ ____
ROOT
ATOM      1  O   UNL     1       3.522   2.900   0.000  0.00  0.00    -0.267 OA
ATOM      2  C   UNL     1       3.522   4.399   0.000  0.00  0.00    +0.263 A 
ATOM      3  C   UNL     1       2.223   5.149   0.000  0.00  0.00    +0.123 A 
ATOM      8  C   UNL     1       2.223   6.649   0.000  0.00  0.00    +0.022 A 
ATOM      9  C   UNL     1       3.522   7.399   0.000  0.00  0.00    +0.034 A 
ATOM     10  C   UNL     1       4.821   6.649   0.000  0.00  0.00    +0.127 A 
ATOM     15  N   UNL     1       4.821   5.149   0.000  0.00  0.00    -0.316 N 
ATOM     16  H   UNL     1       6.120   4.399   0.000  0.00  0.00    +0.169 HD
ENDROOT
BRANCH   3   4
ATOM      4  C   UNL     1       0.924   4.399   0.000  0.00  0.00    +0.344 C 
ATOM      5  O   UNL     1      -0.375   5.149   0.000  0.00  0.00    -0.245 OA
BRANCH   4   6
ATOM      6  O   UNL     1       0.924   2.900   0.000  0.00  0.00    -0.464 OA
ATOM      7  C   UNL     1      -0.375   2.150   0.000  0.00  0.00    +0.280 C 
ENDBRANCH   4   6
ENDBRANCH   3   4
BRANCH  10  11
ATOM     11  C   UNL     1       6.120   7.399   0.000  0.00  0.00    +0.355 C 
ATOM     14  O   UNL     1       7.419   6.649   0.000  0.00  0.00    -0.243 OA
BRANCH  11  12
ATOM     12  O   UNL     1       6.120   8.899   0.000  0.00  0.00    -0.463 OA
ATOM     13  C   UNL     1       4.821   9.649   0.000  0.00  0.00    +0.280 C 
ENDBRANCH  11  12
ENDBRANCH  10  11
TORSDOF 4