REMARK  Name = 13156
REMARK  4 active torsions:
REMARK  status: ('A' for Active; 'I' for Inactive)
REMARK    1  A    between atoms: C_8  and  C_21
REMARK    2  A    between atoms: S_11  and  C_12
REMARK    3  A    between atoms: S_11  and  N_18
REMARK    4  A    between atoms: C_15  and  N_22
REMARK                            x       y       z     vdW  Elec       q    Type
REMARK                         _______ _______ _______ _____ _____    ______ ____
ROOT
ATOM      1  C   UNL     1      -1.674   5.899   0.000  0.00  0.00    +0.002 A 
ATOM      2  C   UNL     1      -0.375   6.649   0.000  0.00  0.00    +0.030 A 
ATOM      3  C   UNL     1       0.924   5.899   0.000  0.00  0.00    +0.091 A 
ATOM      4  N   UNL     1       2.223   6.649   0.000  0.00  0.00    -0.227 NA
ATOM      5  C   UNL     1       3.522   5.899   0.000  0.00  0.00    +0.160 A 
ATOM      6  N   UNL     1       4.821   6.649   0.000  0.00  0.00    -0.198 N 
ATOM      7  H   UNL     1       4.821   7.634   0.000  0.00  0.00    +0.175 HD
ATOM     20  C   UNL     1       3.522   4.399   0.000  0.00  0.00    +0.080 A 
ATOM     21  C   UNL     1       4.821   3.650   0.000  0.00  0.00    +0.069 C 
ATOM     22  N   UNL     1       2.223   3.650   0.000  0.00  0.00    -0.247 NA
ATOM     23  C   UNL     1       0.924   4.399   0.000  0.00  0.00    +0.090 A 
ATOM     24  C   UNL     1      -0.375   3.650   0.000  0.00  0.00    +0.030 A 
ATOM     25  C   UNL     1      -1.674   4.399   0.000  0.00  0.00    +0.002 A 
ENDROOT
BRANCH   6   8
ATOM      8  S   UNL     1       6.120   5.899   0.000  0.00  0.00    +0.074 S 
ATOM      9  O   UNL     1       7.419   5.149   0.000  0.00  0.00    -0.150 OA
ATOM     10  O   UNL     1       5.370   4.601   0.000  0.00  0.00    -0.150 OA
BRANCH   8  11
ATOM     11  C   UNL     1       6.870   7.199   0.000  0.00  0.00    +0.109 A 
ATOM     12  C   UNL     1       6.120   8.498   0.000  0.00  0.00    +0.030 A 
ATOM     13  C   UNL     1       6.870   9.797   0.000  0.00  0.00    +0.024 A 
ATOM     14  C   UNL     1       8.370   9.797   0.000  0.00  0.00    +0.025 A 
ATOM     18  C   UNL     1       9.120   8.498   0.000  0.00  0.00    +0.024 A 
ATOM     19  C   UNL     1       8.370   7.199   0.000  0.00  0.00    +0.030 A 
BRANCH  14  15
ATOM     15  N   UNL     1       9.120  11.096   0.000  0.00  0.00    -0.358 N 
ATOM     16  H   UNL     1       8.628  11.948   0.000  0.00  0.00    +0.142 HD
ATOM     17  H   UNL     1      10.105  11.096   0.000  0.00  0.00    +0.142 HD
ENDBRANCH  14  15
ENDBRANCH   8  11
ENDBRANCH   6   8
TORSDOF 3