REMARK  Name = 107022
REMARK  4 active torsions:
REMARK  status: ('A' for Active; 'I' for Inactive)
REMARK    1  A    between atoms: C_4  and  O_17
REMARK    2  A    between atoms: C_7  and  O_18
REMARK    3  A    between atoms: C_10  and  O_19
REMARK    4  A    between atoms: C_11  and  O_20
REMARK                            x       y       z     vdW  Elec       q    Type
REMARK                         _______ _______ _______ _____ _____    ______ ____
ROOT
ATOM      1  C   UNL     1       7.520   2.525   0.000  0.00  0.00    +0.345 A 
ATOM      2  C   UNL     1       6.221   1.775   0.000  0.00  0.00    +0.077 A 
ATOM      3  C   UNL     1       6.221   0.275   0.000  0.00  0.00    +0.080 A 
ATOM      4  C   UNL     1       4.922  -0.475   0.000  0.00  0.00    +0.174 A 
ATOM      7  C   UNL     1       3.623   0.275   0.000  0.00  0.00    +0.201 A 
ATOM     10  C   UNL     1       3.623   1.775   0.000  0.00  0.00    +0.163 A 
ATOM     13  C   UNL     1       7.520  -0.475   0.000  0.00  0.00    +0.186 A 
ATOM     14  O   UNL     1       7.520  -1.976   0.000  0.00  0.00    -0.416 OA
ATOM     15  C   UNL     1       8.819  -2.725   0.000  0.00  0.00    +0.380 A 
ATOM     16  O   UNL     1       8.819  -4.226   0.000  0.00  0.00    -0.241 OA
ATOM     17  C   UNL     1      10.118  -1.976   0.000  0.00  0.00    +0.206 A 
ATOM     20  C   UNL     1      10.118  -0.475   0.000  0.00  0.00    +0.103 A 
ATOM     21  C   UNL     1       8.819   0.275   0.000  0.00  0.00    +0.179 A 
ATOM     22  C   UNL     1       4.922   2.525   0.000  0.00  0.00    +0.065 A 
ATOM     23  O   UNL     1       8.819   1.775   0.000  0.00  0.00    -0.418 OA
ATOM     24  O   UNL     1       7.520   4.024   0.000  0.00  0.00    -0.244 OA
ENDROOT
BRANCH   4   5
ATOM      5  O   UNL     1       4.922  -1.976   0.000  0.00  0.00    -0.503 OA
ATOM      6  H   UNL     1       4.110  -2.444   0.000  0.00  0.00    +0.292 HD
ENDBRANCH   4   5
BRANCH   7   8
ATOM      8  O   UNL     1       2.324  -0.475   0.000  0.00  0.00    -0.501 OA
ATOM      9  H   UNL     1       1.512  -0.007   0.000  0.00  0.00    +0.292 HD
ENDBRANCH   7   8
BRANCH  10  11
ATOM     11  O   UNL     1       2.324   2.525   0.000  0.00  0.00    -0.503 OA
ATOM     12  H   UNL     1       2.324   3.461   0.000  0.00  0.00    +0.292 HD
ENDBRANCH  10  11
BRANCH  17  18
ATOM     18  O   UNL     1      11.417  -2.725   0.000  0.00  0.00    -0.501 OA
ATOM     19  H   UNL     1      11.417  -3.662   0.000  0.00  0.00    +0.292 HD
ENDBRANCH  17  18
TORSDOF 4