REMARK  Name = 102314
REMARK  5 active torsions:
REMARK  status: ('A' for Active; 'I' for Inactive)
REMARK    1  A    between atoms: C_11  and  O_26
REMARK    2  A    between atoms: C_19  and  O_23
REMARK    3  A    between atoms: O_23  and  C_24
REMARK    4  A    between atoms: C_24  and  C_25
REMARK    5  A    between atoms: C_25  and  O_26
REMARK                            x       y       z     vdW  Elec       q    Type
REMARK                         _______ _______ _______ _____ _____    ______ ____
ROOT
ATOM      7  C   UNL     1       2.668   9.285   0.000  0.00  0.00    +0.188 C 
ENDROOT
BRANCH   7   6
ATOM      6  O   UNL     1       2.825   7.793   0.000  0.00  0.00    -0.374 OA
BRANCH   6   5
ATOM      1  O   UNL     1       0.418   1.231   0.000  0.00  0.00    -0.368 OA
ATOM      2  C   UNL     1       0.730   2.698   0.000  0.00  0.00    +0.151 C 
ATOM      3  C   UNL     1       0.730   4.198   0.000  0.00  0.00    +0.029 C 
ATOM      4  C   UNL     1       1.612   5.412   0.000  0.00  0.00    +0.024 C 
ATOM      5  C   UNL     1       1.612   6.912   0.000  0.00  0.00    +0.122 C 
ATOM     21  C   UNL     1       0.185   7.375   0.000  0.00  0.00    +0.035 C 
ATOM     22  C   UNL     1      -0.697   6.162   0.000  0.00  0.00    -0.005 C 
ATOM     23  C   UNL     1       0.185   4.948   0.000  0.00  0.00    +0.010 C 
ATOM     24  C   UNL     1      -0.697   4.662   0.000  0.00  0.00    +0.001 C 
ATOM     25  C   UNL     1      -1.578   3.448   0.000  0.00  0.00    +0.038 C 
ATOM     26  C   UNL     1      -0.697   2.235   0.000  0.00  0.00    +0.148 C 
ENDBRANCH   6   5
ENDBRANCH   7   6
BRANCH   7   8
ATOM      8  C   UNL     1       3.882  10.167   0.000  0.00  0.00    +0.188 C 
BRANCH   8   9
ATOM      9  O   UNL     1       3.725  11.659   0.000  0.00  0.00    -0.374 OA
BRANCH   9  10
ATOM     10  C   UNL     1       4.939  12.540   0.000  0.00  0.00    +0.122 C 
ATOM     11  C   UNL     1       6.365  12.077   0.000  0.00  0.00    +0.024 C 
ATOM     12  C   UNL     1       7.792  12.540   0.000  0.00  0.00    +0.029 C 
ATOM     13  C   UNL     1       9.219  12.077   0.000  0.00  0.00    +0.151 C 
ATOM     14  C   UNL     1      10.100  13.290   0.000  0.00  0.00    +0.148 C 
ATOM     15  C   UNL     1       9.219  14.504   0.000  0.00  0.00    +0.038 C 
ATOM     16  O   UNL     1      10.710  11.920   0.000  0.00  0.00    -0.368 OA
ATOM     17  C   UNL     1       7.792  14.040   0.000  0.00  0.00    +0.001 C 
ATOM     18  C   UNL     1       6.365  14.504   0.000  0.00  0.00    -0.005 C 
ATOM     19  C   UNL     1       7.247  13.290   0.000  0.00  0.00    +0.010 C 
ATOM     20  C   UNL     1       4.939  14.040   0.000  0.00  0.00    +0.035 C 
ENDBRANCH   9  10
ENDBRANCH   8   9
ENDBRANCH   7   8
TORSDOF 5