REMARK  Name = 114997
REMARK  8 active torsions:
REMARK  status: ('A' for Active; 'I' for Inactive)
REMARK    1  A    between atoms: C_5  and  C_20
REMARK    2  A    between atoms: C_6  and  O_24
REMARK    3  A    between atoms: N_16  and  C_19
REMARK    4  A    between atoms: C_17  and  C_19
REMARK    5  A    between atoms: C_17  and  O_21
REMARK    6  A    between atoms: C_19  and  C_20
REMARK    7  A    between atoms: O_21  and  C_22
REMARK    8  A    between atoms: C_22  and  C_23
REMARK                            x       y       z     vdW  Elec       q    Type
REMARK                         _______ _______ _______ _____ _____    ______ ____
ROOT
ATOM      5  C   UNL     1      -8.169   3.650   0.000  0.00  0.00    +0.187 C 
ENDROOT
BRANCH   5   3
ATOM      1  O   UNL     1      -8.255   6.781   0.000  0.00  0.00    -0.425 OA
ATOM      2  C   UNL     1      -9.468   5.899   0.000  0.00  0.00    +0.289 A 
ATOM      3  N   UNL     1      -9.468   4.399   0.000  0.00  0.00    -0.285 N 
ATOM      4  H   UNL     1     -10.321   3.907   0.000  0.00  0.00    +0.151 HD
ATOM     20  N   UNL     1     -10.682   6.781   0.000  0.00  0.00    -0.195 NA
ATOM     21  C   UNL     1     -10.218   8.208   0.000  0.00  0.00    +0.111 A 
ATOM     22  C   UNL     1     -10.968   9.507   0.000  0.00  0.00    +0.031 A 
ATOM     23  C   UNL     1     -10.218  10.806   0.000  0.00  0.00    +0.002 A 
ATOM     24  C   UNL     1      -8.718  10.806   0.000  0.00  0.00    +0.004 A 
ATOM     25  C   UNL     1      -7.968   9.507   0.000  0.00  0.00    +0.048 A 
ATOM     26  C   UNL     1      -8.718   8.208   0.000  0.00  0.00    +0.157 A 
ENDBRANCH   5   3
BRANCH   5  15
ATOM     15  C   UNL     1      -6.870   4.399   0.000  0.00  0.00    +0.328 C 
ATOM     19  O   UNL     1      -6.870   5.899   0.000  0.00  0.00    -0.249 OA
BRANCH  15  16
ATOM     16  O   UNL     1      -5.571   3.650   0.000  0.00  0.00    -0.464 OA
BRANCH  16  17
ATOM     17  C   UNL     1      -4.272   4.399   0.000  0.00  0.00    +0.229 C 
ATOM     18  C   UNL     1      -2.973   3.650   0.000  0.00  0.00    +0.048 C 
ENDBRANCH  16  17
ENDBRANCH  15  16
ENDBRANCH   5  15
BRANCH   5   6
ATOM      6  C   UNL     1      -8.169   2.150   0.000  0.00  0.00    +0.069 C 
BRANCH   6   7
ATOM      7  C   UNL     1      -6.870   1.400   0.000  0.00  0.00    -0.045 A 
ATOM      8  C   UNL     1      -6.870  -0.101   0.000  0.00  0.00    +0.007 A 
ATOM      9  C   UNL     1      -5.571  -0.851   0.000  0.00  0.00    +0.045 A 
ATOM     10  C   UNL     1      -4.272  -0.101   0.000  0.00  0.00    +0.117 A 
ATOM     13  C   UNL     1      -4.272   1.400   0.000  0.00  0.00    +0.045 A 
ATOM     14  C   UNL     1      -5.571   2.150   0.000  0.00  0.00    +0.007 A 
BRANCH  10  11
ATOM     11  O   UNL     1      -2.973  -0.851   0.000  0.00  0.00    -0.507 OA
ATOM     12  H   UNL     1      -2.973  -1.787   0.000  0.00  0.00    +0.292 HD
ENDBRANCH  10  11
ENDBRANCH   6   7
ENDBRANCH   5   6
TORSDOF 7