REMARK  Name = 108753
REMARK  3 active torsions:
REMARK  status: ('A' for Active; 'I' for Inactive)
REMARK    1  A    between atoms: C_7  and  C_12
REMARK    2  A    between atoms: C_13  and  C_14
REMARK    3  A    between atoms: C_13  and  C_16
REMARK                            x       y       z     vdW  Elec       q    Type
REMARK                         _______ _______ _______ _____ _____    ______ ____
ROOT
ATOM      1  N   UNL     1      -5.263   6.115   0.000  0.00  0.00    -0.343 N 
ATOM      2  H   UNL     1      -5.263   7.615   0.000  0.00  0.00    +0.146 HD
ATOM      3  C   UNL     1      -3.964   5.365   0.000  0.00  0.00    +0.106 C 
ATOM      4  C   UNL     1      -3.964   3.865   0.000  0.00  0.00    +0.056 C 
ATOM      5  C   UNL     1      -5.263   3.115   0.000  0.00  0.00    -0.009 C 
ATOM      6  C   UNL     1      -5.263   1.615   0.000  0.00  0.00    +0.132 C 
ATOM     11  C   UNL     1      -6.562   3.865   0.000  0.00  0.00    +0.001 A 
ATOM     12  C   UNL     1      -7.861   3.115   0.000  0.00  0.00    +0.013 A 
ATOM     13  C   UNL     1      -9.160   3.865   0.000  0.00  0.00    -0.050 A 
ATOM     14  C   UNL     1     -10.459   3.115   0.000  0.00  0.00    +0.044 C 
ATOM     15  C   UNL     1      -9.160   5.365   0.000  0.00  0.00    +0.005 A 
ATOM     16  C   UNL     1      -7.861   6.115   0.000  0.00  0.00    +0.024 A 
ATOM     17  C   UNL     1      -6.562   5.365   0.000  0.00  0.00    +0.035 A 
ENDROOT
BRANCH   6   7
ATOM      7  C   UNL     1      -3.964   0.865   0.000  0.00  0.00    +0.110 C 
ATOM      8  N   UNL     1      -2.665   0.115   0.000  0.00  0.00    -0.190 NA
ENDBRANCH   6   7
BRANCH   6   9
ATOM      9  C   UNL     1      -6.562   0.865   0.000  0.00  0.00    +0.110 C 
ATOM     10  N   UNL     1      -7.861   0.115   0.000  0.00  0.00    -0.190 NA
ENDBRANCH   6   9
TORSDOF 2