REMARK  Name = 20559
REMARK  3 active torsions:
REMARK  status: ('A' for Active; 'I' for Inactive)
REMARK    1  A    between atoms: C_2  and  N_12
REMARK    2  A    between atoms: C_7  and  C_15
REMARK    3  A    between atoms: C_14  and  C_16
REMARK                            x       y       z     vdW  Elec       q    Type
REMARK                         _______ _______ _______ _____ _____    ______ ____
ROOT
ATOM      1  C   UNL     1       1.500  -3.348   0.000  0.00  0.00    +0.044 A 
ATOM      2  C   UNL     1       0.750  -4.647   0.000  0.00  0.00    +0.007 A 
ATOM      3  C   UNL     1       1.500  -5.946   0.000  0.00  0.00    +0.044 A 
ATOM      4  C   UNL     1       3.000  -5.946   0.000  0.00  0.00    +0.127 A 
ATOM      5  N   UNL     1       3.750  -4.647   0.000  0.00  0.00    -0.217 NA
ATOM      6  N   UNL     1       3.750  -7.245   0.000  0.00  0.00    -0.271 N 
ATOM      7  H   UNL     1       5.250  -7.245   0.000  0.00  0.00    +0.156 HD
ATOM      8  C   UNL     1       3.000  -8.544   0.000  0.00  0.00    +0.215 C 
ATOM      9  C   UNL     1       1.500  -8.544   0.000  0.00  0.00    +0.109 C 
ATOM     10  O   UNL     1       3.750  -9.843   0.000  0.00  0.00    -0.276 OA
ATOM     11  C   UNL     1       3.000  -3.348   0.000  0.00  0.00    +0.127 A 
ENDROOT
BRANCH  11  12
ATOM     12  N   UNL     1       3.750  -2.049   0.000  0.00  0.00    -0.271 N 
ATOM     13  C   UNL     1       5.250  -2.049   0.000  0.00  0.00    +0.215 C 
ATOM     14  C   UNL     1       6.000  -3.348   0.000  0.00  0.00    +0.109 C 
ATOM     15  O   UNL     1       6.000  -0.750   0.000  0.00  0.00    -0.276 OA
ATOM     16  H   UNL     1       3.000  -0.750   0.000  0.00  0.00    +0.156 HD
ENDBRANCH  11  12
TORSDOF 1