REMARK  Name = 197046
REMARK  2 active torsions:
REMARK  status: ('A' for Active; 'I' for Inactive)
REMARK    1  A    between atoms: N_4  and  C_15
REMARK    2  A    between atoms: C_15  and  C_16
REMARK                            x       y       z     vdW  Elec       q    Type
REMARK                         _______ _______ _______ _____ _____    ______ ____
ROOT
ATOM      6  C   UNL     1       1.025   6.274   0.000  0.00  0.00    +0.222 C 
ENDROOT
BRANCH   6   5
ATOM      1  O   UNL     1      -4.172   3.275   0.000  0.00  0.00    -0.268 OA
ATOM      2  C   UNL     1      -2.873   4.024   0.000  0.00  0.00    +0.254 A 
ATOM      3  C   UNL     1      -2.873   5.524   0.000  0.00  0.00    +0.088 A 
ATOM      4  C   UNL     1      -1.574   6.274   0.000  0.00  0.00    +0.096 A 
ATOM      5  N   UNL     1      -0.275   5.524   0.000  0.00  0.00    -0.292 N 
ATOM     16  C   UNL     1      -0.275   4.024   0.000  0.00  0.00    +0.330 A 
ATOM     17  O   UNL     1       1.025   3.275   0.000  0.00  0.00    -0.246 OA
ATOM     18  N   UNL     1      -1.574   3.275   0.000  0.00  0.00    -0.275 N 
ATOM     19  H   UNL     1      -1.574   1.775   0.000  0.00  0.00    +0.173 HD
ENDBRANCH   6   5
BRANCH   6   7
ATOM      7  C   UNL     1       1.025   7.774   0.000  0.00  0.00    +0.239 C 
ATOM      8  N   UNL     1       2.324   8.524   0.000  0.00  0.00    -0.263 N 
ATOM      9  H   UNL     1       3.176   8.032   0.000  0.00  0.00    +0.157 HD
ATOM     10  C   UNL     1       2.324  10.025   0.000  0.00  0.00    +0.164 A 
ATOM     11  S   UNL     1       1.110  10.906   0.000  0.00  0.00    -0.061 S 
ATOM     12  C   UNL     1       1.574  12.333   0.000  0.00  0.00    +0.068 A 
ATOM     13  C   UNL     1       3.074  12.333   0.000  0.00  0.00    +0.120 A 
ATOM     14  N   UNL     1       3.537  10.906   0.000  0.00  0.00    -0.233 NA
ATOM     15  O   UNL     1      -0.275   8.524   0.000  0.00  0.00    -0.273 OA
ENDBRANCH   6   7
TORSDOF 2