REMARK  Name = 154389
REMARK  3 active torsions:
REMARK  status: ('A' for Active; 'I' for Inactive)
REMARK    1  A    between atoms: C_8  and  C_9
REMARK    2  A    between atoms: C_16  and  C_24
REMARK    3  A    between atoms: C_18  and  C_23
REMARK                            x       y       z     vdW  Elec       q    Type
REMARK                         _______ _______ _______ _____ _____    ______ ____
ROOT
ATOM      8  C   UNL     1       3.623  -3.275   0.000  0.00  0.00    +0.156 A 
ATOM      9  N   UNL     1       3.623  -4.774   0.000  0.00  0.00    -0.216 NA
ATOM     10  C   UNL     1       4.922  -5.524   0.000  0.00  0.00    +0.142 A 
ATOM     11  C   UNL     1       6.221  -4.774   0.000  0.00  0.00    +0.056 A 
ATOM     19  C   UNL     1       6.221  -3.275   0.000  0.00  0.00    +0.142 A 
ATOM     20 CL   UNL     1       7.520  -2.525   0.000  0.00  0.00    -0.061 Cl
ATOM     21 CL   UNL     1       4.922  -7.024   0.000  0.00  0.00    -0.061 Cl
ATOM     22  N   UNL     1       4.922  -2.525   0.000  0.00  0.00    -0.216 NA
ENDROOT
BRANCH  11  12
ATOM     12  C   UNL     1       7.520  -5.524   0.000  0.00  0.00    -0.012 A 
ATOM     13  C   UNL     1       8.819  -4.774   0.000  0.00  0.00    +0.010 A 
ATOM     14  C   UNL     1      10.118  -5.524   0.000  0.00  0.00    +0.020 A 
ATOM     15  C   UNL     1      10.118  -7.024   0.000  0.00  0.00    +0.041 A 
ATOM     16  C   UNL     1       8.819  -7.774   0.000  0.00  0.00    +0.020 A 
ATOM     17 CL   UNL     1      11.417  -7.774   0.000  0.00  0.00    -0.084 Cl
ATOM     18  C   UNL     1       7.520  -7.024   0.000  0.00  0.00    +0.010 A 
ENDBRANCH  11  12
BRANCH   8   7
ATOM      6  C   UNL     1       2.324  -1.025   0.000  0.00  0.00    +0.011 C 
ATOM      7  C   UNL     1       2.324  -2.525   0.000  0.00  0.00    +0.049 C 
BRANCH   6   5
ATOM      1 CL   UNL     1      -2.873   1.976   0.000  0.00  0.00    -0.084 Cl
ATOM      2  C   UNL     1      -1.574   1.226   0.000  0.00  0.00    +0.041 A 
ATOM      3  C   UNL     1      -1.574  -0.275   0.000  0.00  0.00    +0.020 A 
ATOM      4  C   UNL     1      -0.275  -1.025   0.000  0.00  0.00    +0.009 A 
ATOM      5  C   UNL     1       1.025  -0.275   0.000  0.00  0.00    -0.025 A 
ATOM     23  C   UNL     1       1.025   1.226   0.000  0.00  0.00    +0.009 A 
ATOM     24  C   UNL     1      -0.275   1.976   0.000  0.00  0.00    +0.020 A 
ENDBRANCH   6   5
ENDBRANCH   8   7
TORSDOF 3