REMARK  Name = 159398
REMARK  0 active torsions:
REMARK  status: ('A' for Active; 'I' for Inactive)
REMARK                            x       y       z     vdW  Elec       q    Type
REMARK                         _______ _______ _______ _____ _____    ______ ____
ROOT
ATOM      1  I   UNL     1      -0.507   6.573   0.000  0.00  0.00    -0.038 I 
ATOM      2  C   UNL     1       0.792   5.823   0.000  0.00  0.00    +0.079 A 
ATOM      3  C   UNL     1       0.792   4.323   0.000  0.00  0.00    +0.262 A 
ATOM      4  N   UNL     1       2.091   3.573   0.000  0.00  0.00    -0.327 N 
ATOM      5  H   UNL     1       2.091   2.073   0.000  0.00  0.00    +0.168 HD
ATOM      6  C   UNL     1       3.390   4.323   0.000  0.00  0.00    +0.100 A 
ATOM      7  C   UNL     1       3.390   5.823   0.000  0.00  0.00    +0.031 A 
ATOM      8  I   UNL     1       4.689   6.573   0.000  0.00  0.00    -0.042 I 
ATOM      9  O   UNL     1      -0.507   3.573   0.000  0.00  0.00    -0.267 OA
ATOM     10  C   UNL     1       2.091   6.573   0.000  0.00  0.00    +0.035 A 
ENDROOT
TORSDOF 0