REMARK  Name = 13579
REMARK  5 active torsions:
REMARK  status: ('A' for Active; 'I' for Inactive)
REMARK    1  A    between atoms: C_8  and  S_12
REMARK    2  A    between atoms: C_10  and  C_17
REMARK    3  A    between atoms: S_12  and  C_13
REMARK    4  A    between atoms: C_13  and  C_14
REMARK    5  A    between atoms: C_14  and  O_16
REMARK                            x       y       z     vdW  Elec       q    Type
REMARK                         _______ _______ _______ _____ _____    ______ ____
ROOT
ATOM      1 CL   UNL     1      -8.544  -0.750   0.000  0.00  0.00    -0.083 Cl
ATOM      2  C   UNL     1      -7.245  -1.500   0.000  0.00  0.00    +0.043 A 
ATOM      3  C   UNL     1      -7.245  -3.000   0.000  0.00  0.00    +0.021 A 
ATOM      4  C   UNL     1      -5.946  -3.750   0.000  0.00  0.00    +0.012 A 
ATOM      5  C   UNL     1      -4.647  -3.000   0.000  0.00  0.00    +0.014 A 
ATOM      6  C   UNL     1      -3.348  -3.750   0.000  0.00  0.00    +0.022 A 
ATOM     13  C   UNL     1      -2.049  -3.000   0.000  0.00  0.00    -0.018 A 
ATOM     14  C   UNL     1      -0.750  -3.750   0.000  0.00  0.00    +0.046 C 
ATOM     15  C   UNL     1      -2.049  -1.500   0.000  0.00  0.00    +0.115 A 
ATOM     16  N   UNL     1      -3.348  -0.750   0.000  0.00  0.00    -0.255 NA
ATOM     17  C   UNL     1      -4.647  -1.500   0.000  0.00  0.00    +0.073 A 
ATOM     18  C   UNL     1      -5.946  -0.750   0.000  0.00  0.00    +0.048 A 
ENDROOT
BRANCH   6   7
ATOM      7  S   UNL     1      -3.348  -5.250   0.000  0.00  0.00    -0.113 S 
BRANCH   7   8
ATOM      8  C   UNL     1      -1.938  -5.763   0.000  0.00  0.00    +0.194 C 
BRANCH   8   9
ATOM      9  C   UNL     1      -1.678  -7.240   0.000  0.00  0.00    +0.315 C 
ATOM     12  O   UNL     1      -2.827  -8.204   0.000  0.00  0.00    -0.250 OA
BRANCH   9  10
ATOM     10  O   UNL     1      -0.269  -7.753   0.000  0.00  0.00    -0.480 OA
ATOM     11  H   UNL     1      -0.106  -8.676   0.000  0.00  0.00    +0.295 HD
ENDBRANCH   9  10
ENDBRANCH   8   9
ENDBRANCH   7   8
ENDBRANCH   6   7
TORSDOF 4