REMARK  Name = 13616
REMARK  9 active torsions:
REMARK  status: ('A' for Active; 'I' for Inactive)
REMARK    1  A    between atoms: C_1  and  C_2
REMARK    2  A    between atoms: C_1  and  N_19
REMARK    3  A    between atoms: C_2  and  N_20
REMARK    4  A    between atoms: C_2  and  C_21
REMARK    5  A    between atoms: C_3  and  N_20
REMARK    6  A    between atoms: C_9  and  N_19
REMARK    7  A    between atoms: C_13  and  O_23
REMARK    8  A    between atoms: C_21  and  C_22
REMARK    9  A    between atoms: O_23  and  C_24
REMARK                            x       y       z     vdW  Elec       q    Type
REMARK                         _______ _______ _______ _____ _____    ______ ____
ROOT
ATOM      2  N   UNL     1      -8.544  -3.000   0.000  0.00  0.00    -0.341 N 
ATOM      3  H   UNL     1      -8.544  -2.016   0.000  0.00  0.00    +0.146 HD
ENDROOT
BRANCH   2   4
ATOM      4  C   UNL     1      -9.843  -3.750   0.000  0.00  0.00    +0.057 A 
ATOM      5  C   UNL     1      -9.843  -5.250   0.000  0.00  0.00    +0.070 A 
ATOM      6  C   UNL     1     -11.142  -6.000   0.000  0.00  0.00    +0.123 A 
ATOM      9  C   UNL     1     -12.441  -5.250   0.000  0.00  0.00    +0.055 A 
ATOM     10  C   UNL     1     -12.441  -3.750   0.000  0.00  0.00    +0.006 A 
ATOM     11  C   UNL     1     -13.740  -3.000   0.000  0.00  0.00    +0.011 A 
ATOM     12  C   UNL     1     -13.740  -1.500   0.000  0.00  0.00    +0.020 A 
ATOM     13  C   UNL     1     -12.441  -0.750   0.000  0.00  0.00    +0.111 A 
ATOM     14  N   UNL     1     -11.142  -1.500   0.000  0.00  0.00    -0.253 NA
ATOM     15  C   UNL     1     -11.142  -3.000   0.000  0.00  0.00    +0.092 A 
BRANCH   6   7
ATOM      7  O   UNL     1     -11.142  -7.500   0.000  0.00  0.00    -0.495 OA
ATOM      8  C   UNL     1     -12.441  -8.250   0.000  0.00  0.00    +0.277 C 
ENDBRANCH   6   7
ENDBRANCH   2   4
BRANCH   2   1
ATOM      1  C   UNL     1      -7.245  -3.750   0.000  0.00  0.00    +0.120 C 
BRANCH   1  16
ATOM     16  C   UNL     1      -5.946  -3.000   0.000  0.00  0.00    +0.071 C 
BRANCH  16  17
ATOM     17  C   UNL     1      -5.946  -1.500   0.000  0.00  0.00    +0.017 C 
ATOM     18  C   UNL     1      -7.245  -0.750   0.000  0.00  0.00    +0.005 C 
ENDBRANCH  16  17
BRANCH  16  19
ATOM     19  N   UNL     1      -4.647  -3.750   0.000  0.00  0.00    -0.309 NA
ATOM     20  H   UNL     1      -4.647  -4.770   0.000  0.00  0.00    +0.123 HD
BRANCH  19  21
ATOM     21  C   UNL     1      -3.348  -3.000   0.000  0.00  0.00    +0.054 C 
ATOM     22  C   UNL     1      -3.348  -1.500   0.000  0.00  0.00    +0.019 C 
ATOM     23  C   UNL     1      -2.049  -0.750   0.000  0.00  0.00    +0.002 C 
ATOM     24  C   UNL     1      -0.750  -1.500   0.000  0.00  0.00    +0.000 C 
ATOM     25  C   UNL     1      -0.750  -3.000   0.000  0.00  0.00    +0.002 C 
ATOM     26  C   UNL     1      -2.049  -3.750   0.000  0.00  0.00    +0.019 C 
ENDBRANCH  19  21
ENDBRANCH  16  19
ENDBRANCH   1  16
ENDBRANCH   2   1
TORSDOF 7