REMARK  Name = 14311
REMARK  2 active torsions:
REMARK  status: ('A' for Active; 'I' for Inactive)
REMARK    1  A    between atoms: N_2  and  C_19
REMARK    2  A    between atoms: N_4  and  C_20
REMARK                            x       y       z     vdW  Elec       q    Type
REMARK                         _______ _______ _______ _____ _____    ______ ____
ROOT
ATOM      1  O   UNL     1       0.750   2.250   0.000  0.00  0.00    -0.246 OA
ATOM      2  C   UNL     1       2.049   3.000   0.000  0.00  0.00    +0.333 A 
ATOM      3  N   UNL     1       3.348   2.250   0.000  0.00  0.00    -0.280 N 
ATOM      4  C   UNL     1       3.348   0.750   0.000  0.00  0.00    +0.155 C 
ATOM      5  C   UNL     1       4.647   3.000   0.000  0.00  0.00    +0.170 A 
ATOM      6  C   UNL     1       4.647   4.500   0.000  0.00  0.00    +0.150 A 
ATOM      7  C   UNL     1       3.348   5.250   0.000  0.00  0.00    +0.282 A 
ATOM      8  O   UNL     1       3.348   6.750   0.000  0.00  0.00    -0.265 OA
ATOM      9  N   UNL     1       6.074   4.963   0.000  0.00  0.00    -0.320 N 
ATOM     10  C   UNL     1       6.955   3.750   0.000  0.00  0.00    +0.198 A 
ATOM     11  N   UNL     1       8.455   3.750   0.000  0.00  0.00    -0.301 N 
ATOM     12  C   UNL     1       9.205   2.451   0.000  0.00  0.00    +0.108 C 
ATOM     13  C   UNL     1      10.705   2.451   0.000  0.00  0.00    +0.019 C 
ATOM     14  C   UNL     1      11.455   3.750   0.000  0.00  0.00    +0.003 C 
ATOM     15  C   UNL     1      10.705   5.049   0.000  0.00  0.00    +0.019 C 
ATOM     16  C   UNL     1       9.205   5.049   0.000  0.00  0.00    +0.108 C 
ATOM     17  H   UNL     1       6.537   6.390   0.000  0.00  0.00    +0.169 HD
ATOM     18  N   UNL     1       6.074   2.537   0.000  0.00  0.00    -0.196 NA
ATOM     19  N   UNL     1       2.049   4.500   0.000  0.00  0.00    -0.262 N 
ATOM     20  C   UNL     1       0.750   5.250   0.000  0.00  0.00    +0.157 C 
ENDROOT
TORSDOF 0