REMARK  Name = 117028
REMARK  4 active torsions:
REMARK  status: ('A' for Active; 'I' for Inactive)
REMARK    1  A    between atoms: N_3  and  C_25
REMARK    2  A    between atoms: N_4  and  C_6
REMARK    3  A    between atoms: C_13  and  O_24
REMARK    4  A    between atoms: C_14  and  C_25
REMARK                            x       y       z     vdW  Elec       q    Type
REMARK                         _______ _______ _______ _____ _____    ______ ____
ROOT
ATOM      1  N   UNL     1     -11.142  -1.500   0.000  0.00  0.00    -0.251 NA
ATOM      2  C   UNL     1     -11.142  -3.000   0.000  0.00  0.00    +0.114 A 
ATOM      3  C   UNL     1     -12.441  -3.750   0.000  0.00  0.00    +0.018 A 
ATOM      4  C   UNL     1     -12.441  -5.250   0.000  0.00  0.00    +0.028 A 
ATOM      5  C   UNL     1     -11.142  -6.000   0.000  0.00  0.00    +0.024 A 
ATOM      6  C   UNL     1      -9.843  -5.250   0.000  0.00  0.00    +0.011 A 
ATOM     20 BR   UNL     1     -13.740  -6.000   0.000  0.00  0.00    -0.050 Br
ATOM     21  C   UNL     1     -13.740  -3.000   0.000  0.00  0.00    +0.013 A 
ATOM     22  C   UNL     1     -13.740  -1.500   0.000  0.00  0.00    +0.020 A 
ATOM     23  C   UNL     1      -9.843  -3.750   0.000  0.00  0.00    +0.147 A 
ATOM     26  C   UNL     1     -12.441  -0.750   0.000  0.00  0.00    +0.111 A 
ENDROOT
BRANCH  23  24
ATOM     24  O   UNL     1      -8.544  -3.000   0.000  0.00  0.00    -0.504 OA
ATOM     25  H   UNL     1      -7.733  -3.469   0.000  0.00  0.00    +0.292 HD
ENDBRANCH  23  24
BRANCH   6   7
ATOM      7  C   UNL     1      -8.544  -6.000   0.000  0.00  0.00    +0.123 C 
BRANCH   7   8
ATOM      8  N   UNL     1      -7.245  -5.250   0.000  0.00  0.00    -0.295 NA
ATOM      9  C   UNL     1      -5.946  -6.000   0.000  0.00  0.00    +0.103 C 
ATOM     10  C   UNL     1      -4.647  -5.250   0.000  0.00  0.00    +0.120 C 
ATOM     11  N   UNL     1      -4.647  -3.750   0.000  0.00  0.00    -0.327 N 
ATOM     12  C   UNL     1      -5.946  -3.000   0.000  0.00  0.00    +0.120 C 
ATOM     19  C   UNL     1      -7.245  -3.750   0.000  0.00  0.00    +0.103 C 
BRANCH  11  13
ATOM     13  C   UNL     1      -3.348  -3.000   0.000  0.00  0.00    +0.030 A 
ATOM     14  C   UNL     1      -2.049  -3.750   0.000  0.00  0.00    +0.023 A 
ATOM     15  C   UNL     1      -0.750  -3.000   0.000  0.00  0.00    +0.002 A 
ATOM     16  C   UNL     1      -0.750  -1.500   0.000  0.00  0.00    +0.000 A 
ATOM     17  C   UNL     1      -2.049  -0.750   0.000  0.00  0.00    +0.002 A 
ATOM     18  C   UNL     1      -3.348  -1.500   0.000  0.00  0.00    +0.023 A 
ENDBRANCH  11  13
ENDBRANCH   7   8
ENDBRANCH   6   7
TORSDOF 4