REMARK  Name = 194243
REMARK  4 active torsions:
REMARK  status: ('A' for Active; 'I' for Inactive)
REMARK    1  A    between atoms: C_9  and  C_11
REMARK    2  A    between atoms: C_11  and  N_12
REMARK    3  A    between atoms: N_12  and  C_13
REMARK    4  A    between atoms: N_12  and  C_14
REMARK                            x       y       z     vdW  Elec       q    Type
REMARK                         _______ _______ _______ _____ _____    ______ ____
ROOT
ATOM      1  N   UNL     1      -8.701   1.176   0.000  0.00  0.00    -0.234 NA
ATOM      2  C   UNL     1      -7.402   0.426   0.000  0.00  0.00    +0.157 A 
ATOM      3  C   UNL     1      -7.402  -1.074   0.000  0.00  0.00    +0.112 A 
ATOM      4  C   UNL     1      -5.975  -1.538   0.000  0.00  0.00    +0.011 A 
ATOM      9  C   UNL     1      -5.094  -0.324   0.000  0.00  0.00    +0.091 A 
ATOM     10  N   UNL     1      -8.701  -1.824   0.000  0.00  0.00    -0.250 NA
ATOM     11  C   UNL     1     -10.000  -1.074   0.000  0.00  0.00    +0.131 A 
ATOM     12  N   UNL     1      -5.975   0.890   0.000  0.00  0.00    -0.344 N 
ATOM     13  H   UNL     1      -5.512   2.316   0.000  0.00  0.00    +0.167 HD
ATOM     14  C   UNL     1     -10.000   0.426   0.000  0.00  0.00    +0.133 A 
ENDROOT
BRANCH   4   5
ATOM      5  C   UNL     1      -5.512  -2.964   0.000  0.00  0.00    +0.122 C 
BRANCH   5   6
ATOM      6  N   UNL     1      -4.045  -3.276   0.000  0.00  0.00    -0.304 NA
ATOM      7  C   UNL     1      -3.581  -4.702   0.000  0.00  0.00    +0.104 C 
ATOM      8  C   UNL     1      -3.041  -2.161   0.000  0.00  0.00    +0.104 C 
ENDBRANCH   5   6
ENDBRANCH   4   5
TORSDOF 2