REMARK  Name = 17129
REMARK  6 active torsions:
REMARK  status: ('A' for Active; 'I' for Inactive)
REMARK    1  A    between atoms: C_2  and  C_11
REMARK    2  A    between atoms: C_5  and  S_8
REMARK    3  A    between atoms: N_7  and  S_8
REMARK    4  A    between atoms: N_13  and  C_14
REMARK    5  A    between atoms: C_14  and  C_15
REMARK    6  A    between atoms: C_15  and  C_16
REMARK                            x       y       z     vdW  Elec       q    Type
REMARK                         _______ _______ _______ _____ _____    ______ ____
ROOT
ATOM      1  C   UNL     1       3.422   6.074   0.000  0.00  0.00    +0.015 A 
ATOM      2  C   UNL     1       4.721   5.324   0.000  0.00  0.00    +0.037 A 
ATOM     10  C   UNL     1       4.721   3.824   0.000  0.00  0.00    +0.015 A 
ATOM     11  C   UNL     1       3.422   3.074   0.000  0.00  0.00    +0.029 A 
ATOM     12  C   UNL     1       2.123   3.824   0.000  0.00  0.00    +0.105 A 
ATOM     19  C   UNL     1       2.123   5.324   0.000  0.00  0.00    +0.029 A 
ENDROOT
BRANCH   2   3
ATOM      3  C   UNL     1       6.020   6.074   0.000  0.00  0.00    +0.244 C 
ATOM      4  N   UNL     1       6.020   7.574   0.000  0.00  0.00    -0.311 N 
ATOM      5  H   UNL     1       5.167   8.066   0.000  0.00  0.00    +0.149 HD
ATOM      9  O   UNL     1       7.319   5.324   0.000  0.00  0.00    -0.270 OA
BRANCH   4   6
ATOM      6  C   UNL     1       7.319   8.324   0.000  0.00  0.00    +0.104 C 
BRANCH   6   7
ATOM      7  C   UNL     1       8.618   7.574   0.000  0.00  0.00    +0.015 C 
ATOM      8  C   UNL     1       9.917   8.324   0.000  0.00  0.00    +0.005 C 
ENDBRANCH   6   7
ENDBRANCH   4   6
ENDBRANCH   2   3
BRANCH  12  13
ATOM     13  S   UNL     1       0.824   3.074   0.000  0.00  0.00    +0.056 S 
ATOM     14  O   UNL     1       1.574   1.775   0.000  0.00  0.00    -0.153 OA
ATOM     15  O   UNL     1      -0.475   2.324   0.000  0.00  0.00    -0.153 OA
BRANCH  13  16
ATOM     16  N   UNL     1       0.074   4.373   0.000  0.00  0.00    -0.204 NA
ATOM     17  H   UNL     1      -0.946   4.373   0.000  0.00  0.00    +0.144 HD
ATOM     18  H   UNL     1       0.584   5.256   0.000  0.00  0.00    +0.144 HD
ENDBRANCH  13  16
ENDBRANCH  12  13
TORSDOF 5