REMARK  Name = 138398
REMARK  8 active torsions:
REMARK  status: ('A' for Active; 'I' for Inactive)
REMARK    1  A    between atoms: C_13  and  C_15
REMARK    2  A    between atoms: C_15  and  N_16
REMARK    3  A    between atoms: N_16  and  C_17
REMARK    4  A    between atoms: N_16  and  C_20
REMARK    5  A    between atoms: C_17  and  C_18
REMARK    6  A    between atoms: C_18  and  C_19
REMARK    7  A    between atoms: C_20  and  C_21
REMARK    8  A    between atoms: C_21  and  C_22
REMARK                            x       y       z     vdW  Elec       q    Type
REMARK                         _______ _______ _______ _____ _____    ______ ____
ROOT
ATOM      1  N   UNL     1      -1.574   6.274   0.000  0.00  0.00    -0.260 N 
ATOM      2  C   UNL     1      -1.574   7.774   0.000  0.00  0.00    +0.234 C 
ATOM     11  O   UNL     1      -2.873   8.524   0.000  0.00  0.00    -0.274 OA
ATOM     12  C   UNL     1      -0.275   5.524   0.000  0.00  0.00    +0.209 C 
ATOM     13  C   UNL     1      -0.275   4.024   0.000  0.00  0.00    +0.235 C 
ATOM     14  O   UNL     1       1.025   3.275   0.000  0.00  0.00    -0.274 OA
ATOM     15  N   UNL     1      -1.574   3.275   0.000  0.00  0.00    -0.283 N 
ATOM     16  H   UNL     1      -1.574   1.775   0.000  0.00  0.00    +0.155 HD
ATOM     17  C   UNL     1      -2.873   4.024   0.000  0.00  0.00    +0.055 A 
ATOM     18  C   UNL     1      -4.172   3.275   0.000  0.00  0.00    +0.025 A 
ATOM     19  C   UNL     1      -5.471   4.024   0.000  0.00  0.00    +0.002 A 
ATOM     20  C   UNL     1      -5.471   5.524   0.000  0.00  0.00    +0.002 A 
ATOM     21  C   UNL     1      -4.172   6.274   0.000  0.00  0.00    +0.025 A 
ATOM     22  C   UNL     1      -2.873   5.524   0.000  0.00  0.00    +0.058 A 
ENDROOT
BRANCH   2   3
ATOM      3  C   UNL     1      -0.275   8.524   0.000  0.00  0.00    +0.181 C 
BRANCH   3   4
ATOM      4  N   UNL     1      -0.275  10.025   0.000  0.00  0.00    -0.294 NA
BRANCH   4   5
ATOM      5  C   UNL     1       1.025  10.775   0.000  0.00  0.00    +0.084 C 
BRANCH   5   6
ATOM      6  C   UNL     1       1.025  12.275   0.000  0.00  0.00    +0.012 C 
ATOM      7  C   UNL     1       2.324  13.025   0.000  0.00  0.00    +0.005 C 
ENDBRANCH   5   6
ENDBRANCH   4   5
BRANCH   4   8
ATOM      8  C   UNL     1      -1.574  10.775   0.000  0.00  0.00    +0.084 C 
BRANCH   8   9
ATOM      9  C   UNL     1      -1.574  12.275   0.000  0.00  0.00    +0.012 C 
ATOM     10  C   UNL     1      -0.275  13.025   0.000  0.00  0.00    +0.005 C 
ENDBRANCH   8   9
ENDBRANCH   4   8
ENDBRANCH   3   4
ENDBRANCH   2   3
TORSDOF 6