REMARK  Name = 128737
REMARK  2 active torsions:
REMARK  status: ('A' for Active; 'I' for Inactive)
REMARK    1  A    between atoms: C_6  and  C_10
REMARK    2  A    between atoms: C_9  and  N_17
REMARK                            x       y       z     vdW  Elec       q    Type
REMARK                         _______ _______ _______ _____ _____    ______ ____
ROOT
ATOM      1  N   UNL     1     -10.866   1.493   0.000  0.00  0.00    -0.261 NA
ATOM      2  C   UNL     1     -10.116   2.792   0.000  0.00  0.00    +0.113 A 
ATOM      3  C   UNL     1      -8.616   2.792   0.000  0.00  0.00    +0.047 A 
ATOM      4  C   UNL     1      -7.866   1.493   0.000  0.00  0.00    +0.069 A 
ATOM      5  C   UNL     1      -8.616   0.194   0.000  0.00  0.00    +0.107 A 
ATOM      6  N   UNL     1      -7.612  -0.921   0.000  0.00  0.00    -0.226 NA
ATOM      7  C   UNL     1      -6.242  -0.311   0.000  0.00  0.00    +0.141 A 
ATOM     17  N   UNL     1      -6.399   1.181   0.000  0.00  0.00    -0.338 N 
ATOM     18  H   UNL     1      -5.284   2.184   0.000  0.00  0.00    +0.167 HD
ATOM     19  C   UNL     1     -10.116   0.194   0.000  0.00  0.00    +0.140 A 
ENDROOT
BRANCH   7   8
ATOM      8  C   UNL     1      -4.943  -1.061   0.000  0.00  0.00    +0.038 A 
ATOM      9  C   UNL     1      -4.943  -2.561   0.000  0.00  0.00    +0.035 A 
ATOM     13  C   UNL     1      -3.644  -3.311   0.000  0.00  0.00    +0.023 A 
ATOM     14  C   UNL     1      -2.345  -2.561   0.000  0.00  0.00    +0.002 A 
ATOM     15  C   UNL     1      -2.345  -1.061   0.000  0.00  0.00    +0.001 A 
ATOM     16  C   UNL     1      -3.644  -0.311   0.000  0.00  0.00    +0.013 A 
BRANCH   9  10
ATOM     10  N   UNL     1      -6.242  -3.311   0.000  0.00  0.00    -0.357 N 
ATOM     11  H   UNL     1      -6.242  -4.295   0.000  0.00  0.00    +0.142 HD
ATOM     12  H   UNL     1      -7.094  -2.819   0.000  0.00  0.00    +0.142 HD
ENDBRANCH   9  10
ENDBRANCH   7   8
TORSDOF 2