REMARK  Name = 135857
REMARK  6 active torsions:
REMARK  status: ('A' for Active; 'I' for Inactive)
REMARK    1  A    between atoms: N_1  and  C_5
REMARK    2  A    between atoms: C_2  and  C_9
REMARK    3  A    between atoms: C_5  and  C_6
REMARK    4  A    between atoms: C_5  and  C_7
REMARK    5  A    between atoms: C_5  and  C_8
REMARK    6  A    between atoms: C_9  and  N_10
REMARK                            x       y       z     vdW  Elec       q    Type
REMARK                         _______ _______ _______ _____ _____    ______ ____
ROOT
ATOM      1  N   UNL     1       2.871   2.250   0.000  0.00  0.00    -0.293 NA
ATOM      6  C   UNL     1       2.871   0.750   0.000  0.00  0.00    +0.087 C 
ATOM      7  C   UNL     1       4.371   0.750   0.000  0.00  0.00    +0.035 C 
ATOM      8  C   UNL     1       4.371   2.250   0.000  0.00  0.00    +0.072 C 
ENDROOT
BRANCH   1   2
ATOM      2  C   UNL     1       1.811   3.311   0.000  0.00  0.00    +0.014 C 
ATOM      3  C   UNL     1       2.871   4.371   0.000  0.00  0.00    +0.027 C 
ATOM      4  C   UNL     1       0.750   4.371   0.000  0.00  0.00    +0.027 C 
ATOM      5  C   UNL     1       0.750   2.250   0.000  0.00  0.00    +0.027 C 
ENDBRANCH   1   2
BRANCH   8   9
ATOM      9  C   UNL     1       5.432   3.311   0.000  0.00  0.00    +0.096 C 
BRANCH   9  10
ATOM     10  N   UNL     1       6.881   2.922   0.000  0.00  0.00    -0.329 NA
ATOM     11  H   UNL     1       7.602   3.644   0.000  0.00  0.00    +0.118 HD
ATOM     12  H   UNL     1       7.145   1.937   0.000  0.00  0.00    +0.118 HD
ENDBRANCH   9  10
ENDBRANCH   8   9
TORSDOF 3