REMARK  Name = 125605
REMARK  7 active torsions:
REMARK  status: ('A' for Active; 'I' for Inactive)
REMARK    1  A    between atoms: N_1  and  C_10
REMARK    2  A    between atoms: N_2  and  N_17
REMARK    3  A    between atoms: C_4  and  N_17
REMARK    4  A    between atoms: C_7  and  O_18
REMARK    5  A    between atoms: C_12  and  O_15
REMARK    6  A    between atoms: O_15  and  C_16
REMARK    7  A    between atoms: O_18  and  C_19
REMARK                            x       y       z     vdW  Elec       q    Type
REMARK                         _______ _______ _______ _____ _____    ______ ____
ROOT
ATOM      1  N   UNL     1      -2.973   2.150   0.000  0.00  0.00    -0.130 NA
ATOM     10  N   UNL     1      -2.973   3.650   0.000  0.00  0.00    -0.076 NA
ENDROOT
BRANCH   1   2
ATOM      2  C   UNL     1      -1.674   1.400   0.000  0.00  0.00    +0.129 A 
ATOM      3  C   UNL     1      -0.375   2.150   0.000  0.00  0.00    +0.147 A 
ATOM      6  C   UNL     1       0.924   1.400   0.000  0.00  0.00    +0.048 A 
ATOM      7  C   UNL     1       0.924  -0.101   0.000  0.00  0.00    +0.004 A 
ATOM      8  C   UNL     1      -0.375  -0.851   0.000  0.00  0.00    +0.002 A 
ATOM      9  C   UNL     1      -1.674  -0.101   0.000  0.00  0.00    +0.033 A 
BRANCH   3   4
ATOM      4  O   UNL     1      -0.375   3.650   0.000  0.00  0.00    -0.493 OA
ATOM      5  C   UNL     1      -1.674   4.399   0.000  0.00  0.00    +0.277 C 
ENDBRANCH   3   4
ENDBRANCH   1   2
BRANCH  10  11
ATOM     11  N   UNL     1      -4.272   4.399   0.000  0.00  0.00    -0.216 N 
ATOM     12  H   UNL     1      -5.125   3.907   0.000  0.00  0.00    +0.176 HD
BRANCH  11  13
ATOM     13  C   UNL     1      -4.272   5.899   0.000  0.00  0.00    +0.091 A 
ATOM     14  C   UNL     1      -5.571   6.649   0.000  0.00  0.00    +0.143 A 
ATOM     17  C   UNL     1      -5.571   8.149   0.000  0.00  0.00    +0.047 A 
ATOM     18  C   UNL     1      -4.272   8.899   0.000  0.00  0.00    +0.004 A 
ATOM     19  C   UNL     1      -2.973   8.149   0.000  0.00  0.00    +0.002 A 
ATOM     20  C   UNL     1      -2.973   6.649   0.000  0.00  0.00    +0.028 A 
BRANCH  14  15
ATOM     15  O   UNL     1      -6.870   5.899   0.000  0.00  0.00    -0.493 OA
ATOM     16  C   UNL     1      -8.169   6.649   0.000  0.00  0.00    +0.277 C 
ENDBRANCH  14  15
ENDBRANCH  11  13
ENDBRANCH  10  11
TORSDOF 5