REMARK  Name = 116397
REMARK  3 active torsions:
REMARK  status: ('A' for Active; 'I' for Inactive)
REMARK    1  A    between atoms: N_2  and  C_24
REMARK    2  A    between atoms: C_15  and  O_22
REMARK    3  A    between atoms: O_22  and  C_23
REMARK                            x       y       z     vdW  Elec       q    Type
REMARK                         _______ _______ _______ _____ _____    ______ ____
ROOT
ATOM      1  O   UNL     1       0.199   1.541   0.000  0.00  0.00    -0.346 OA
ATOM      2  C   UNL     1       0.793   1.110   0.000  0.00  0.00    +0.171 C 
ATOM      3  C   UNL     1       1.481   0.741   0.000  0.00  0.00    +0.065 C 
ATOM      4  C   UNL     1       1.481   0.008   0.000  0.00  0.00    +0.011 C 
ATOM      5  C   UNL     1       0.846  -0.358   0.000  0.00  0.00    +0.017 C 
ATOM      6  C   UNL     1       0.846  -1.091   0.000  0.00  0.00    +0.065 C 
ATOM      7  C   UNL     1       0.211  -1.458   0.000  0.00  0.00    +0.054 C 
ATOM      8  C   UNL     1      -0.424  -1.091   0.000  0.00  0.00    -0.042 A 
ATOM      9  C   UNL     1      -1.058  -1.458   0.000  0.00  0.00    +0.007 A 
ATOM     10  C   UNL     1      -1.692  -1.091   0.000  0.00  0.00    +0.046 A 
ATOM     11  C   UNL     1      -1.692  -0.358   0.000  0.00  0.00    +0.120 A 
ATOM     14  C   UNL     1      -1.058   0.008   0.000  0.00  0.00    +0.050 A 
ATOM     15  C   UNL     1      -0.424  -0.358   0.000  0.00  0.00    -0.034 A 
ATOM     16  N   UNL     1       0.451  -0.863   0.000  0.00  0.00    -0.302 NA
ATOM     17  C   UNL     1       1.156  -0.674   0.000  0.00  0.00    +0.105 C 
ATOM     18  C   UNL     1       0.506  -0.532   0.000  0.00  0.00    +0.085 C 
ATOM     19  C   UNL     1       0.211  -0.455   0.000  0.00  0.00    +0.027 C 
ATOM     20  C   UNL     1       0.211   0.008   0.000  0.00  0.00    +0.006 C 
ATOM     21  C   UNL     1       0.211   0.741   0.000  0.00  0.00    +0.077 C 
ATOM     22  O   UNL     1       1.386   1.541   0.000  0.00  0.00    -0.346 OA
ATOM     23  C   UNL     1       1.159   2.238   0.000  0.00  0.00    +0.191 C 
ATOM     24  C   UNL     1       0.426   2.238   0.000  0.00  0.00    +0.191 C 
ENDROOT
BRANCH  11  12
ATOM     12  O   UNL     1      -2.300  -0.007   0.000  0.00  0.00    -0.495 OA
ATOM     13  C   UNL     1      -2.932  -0.372   0.000  0.00  0.00    +0.277 C 
ENDBRANCH  11  12
TORSDOF 1