REMARK  Name = 154295
REMARK  5 active torsions:
REMARK  status: ('A' for Active; 'I' for Inactive)
REMARK    1  A    between atoms: C_1  and  C_16
REMARK    2  A    between atoms: O_2  and  C_16
REMARK    3  A    between atoms: O_2  and  C_17
REMARK    4  A    between atoms: N_5  and  C_8
REMARK    5  A    between atoms: C_14  and  C_17
REMARK                            x       y       z     vdW  Elec       q    Type
REMARK                         _______ _______ _______ _____ _____    ______ ____
ROOT
ATOM      5  C   UNL     1       3.839  -0.332   0.000  0.00  0.00    +0.221 C 
ATOM      6  C   UNL     1       4.843  -1.447   0.000  0.00  0.00    +0.164 C 
ATOM      7  N   UNL     1       6.213  -0.837   0.000  0.00  0.00    -0.234 N 
ATOM     14  C   UNL     1       6.056   0.655   0.000  0.00  0.00    +0.408 C 
ATOM     15  O   UNL     1       7.171   1.659   0.000  0.00  0.00    -0.226 OA
ATOM     16  O   UNL     1       4.589   0.967   0.000  0.00  0.00    -0.443 OA
ENDROOT
BRANCH   7   8
ATOM      8  C   UNL     1       7.512  -1.587   0.000  0.00  0.00    +0.040 A 
ATOM      9  C   UNL     1       7.512  -3.087   0.000  0.00  0.00    +0.023 A 
ATOM     10  C   UNL     1       8.811  -3.837   0.000  0.00  0.00    +0.002 A 
ATOM     11  C   UNL     1      10.110  -3.087   0.000  0.00  0.00    +0.000 A 
ATOM     12  C   UNL     1      10.110  -1.587   0.000  0.00  0.00    +0.002 A 
ATOM     13  C   UNL     1       8.811  -0.837   0.000  0.00  0.00    +0.023 A 
ENDBRANCH   7   8
BRANCH   5   4
ATOM      4  C   UNL     1       2.347  -0.489   0.000  0.00  0.00    +0.207 C 
BRANCH   4   3
ATOM      3  O   UNL     1       1.465   0.725   0.000  0.00  0.00    -0.364 OA
BRANCH   3   2
ATOM      2  C   UNL     1       2.075   2.095   0.000  0.00  0.00    +0.248 C 
BRANCH   2   1
ATOM      1  C   UNL     1       3.567   2.252   0.000  0.00  0.00    -0.077 C 
ATOM     17  C   UNL     1       5.059   2.408   0.000  0.00  0.00    +0.006 C 
ENDBRANCH   2   1
ENDBRANCH   3   2
ENDBRANCH   4   3
ENDBRANCH   5   4
TORSDOF 5