REMARK  Name = 125043
REMARK  2 active torsions:
REMARK  status: ('A' for Active; 'I' for Inactive)
REMARK    1  A    between atoms: N_3  and  N_4
REMARK    2  A    between atoms: C_12  and  C_16
REMARK                            x       y       z     vdW  Elec       q    Type
REMARK                         _______ _______ _______ _____ _____    ______ ____
ROOT
ATOM      7  C   UNL     1      -5.656  -4.558   0.000  0.00  0.00    -0.005 A 
ATOM      8  C   UNL     1      -4.357  -5.308   0.000  0.00  0.00    +0.013 A 
ATOM      9  C   UNL     1      -3.058  -4.558   0.000  0.00  0.00    -0.044 A 
ATOM     10  C   UNL     1      -1.632  -5.022   0.000  0.00  0.00    +0.036 C 
ATOM     11  C   UNL     1      -0.750  -3.808   0.000  0.00  0.00    +0.009 C 
ATOM     12  C   UNL     1      -1.632  -2.595   0.000  0.00  0.00    +0.036 C 
ATOM     13  C   UNL     1      -3.058  -3.058   0.000  0.00  0.00    -0.044 A 
ATOM     14  C   UNL     1      -4.357  -2.308   0.000  0.00  0.00    +0.004 A 
ATOM     15  C   UNL     1      -5.656  -3.058   0.000  0.00  0.00    +0.010 A 
ENDROOT
BRANCH   7   6
ATOM      5  N   UNL     1      -8.254  -4.558   0.000  0.00  0.00    -0.172 NA
ATOM      6  C   UNL     1      -6.955  -5.308   0.000  0.00  0.00    +0.141 C 
BRANCH   5   4
ATOM      1  N   UNL     1     -11.928  -5.813   0.000  0.00  0.00    -0.136 NA
ATOM      2  N   UNL     1     -11.178  -7.112   0.000  0.00  0.00    -0.136 NA
ATOM      3  C   UNL     1      -9.710  -6.800   0.000  0.00  0.00    +0.248 A 
ATOM      4  N   UNL     1      -9.553  -5.308   0.000  0.00  0.00    -0.207 N 
ATOM     16  C   UNL     1     -10.924  -4.698   0.000  0.00  0.00    +0.248 A 
ENDBRANCH   5   4
ENDBRANCH   7   6
TORSDOF 2