REMARK  Name = 144982
REMARK  8 active torsions:
REMARK  status: ('A' for Active; 'I' for Inactive)
REMARK    1  A    between atoms: C_2  and  C_7
REMARK    2  A    between atoms: C_3  and  C_9
REMARK    3  A    between atoms: C_4  and  C_11
REMARK    4  A    between atoms: C_5  and  C_8
REMARK    5  A    between atoms: C_9  and  O_14
REMARK    6  A    between atoms: C_11  and  O_13
REMARK    7  A    between atoms: O_14  and  C_15
REMARK    8  A    between atoms: C_15  and  C_16
REMARK                            x       y       z     vdW  Elec       q    Type
REMARK                         _______ _______ _______ _____ _____    ______ ____
ROOT
ATOM      1  C   UNL     1      -1.882   7.240   0.000  0.00  0.00    +0.046 C 
ATOM      2  C   UNL     1      -0.583   6.490   0.000  0.00  0.00    +0.116 C 
ATOM      8  C   UNL     1      -0.583   4.990   0.000  0.00  0.00    +0.116 C 
ATOM     13  C   UNL     1      -1.882   4.240   0.000  0.00  0.00    +0.046 C 
ATOM     14  C   UNL     1      -3.181   4.990   0.000  0.00  0.00    -0.073 C 
ATOM     15  C   UNL     1      -4.480   4.240   0.000  0.00  0.00    +0.039 C 
ATOM     16  C   UNL     1      -3.181   6.490   0.000  0.00  0.00    -0.073 C 
ATOM     17  C   UNL     1      -4.480   7.240   0.000  0.00  0.00    +0.039 C 
ENDROOT
BRANCH   2   3
ATOM      3  C   UNL     1       0.716   7.240   0.000  0.00  0.00    +0.311 C 
ATOM      7  O   UNL     1       2.015   6.490   0.000  0.00  0.00    -0.251 OA
BRANCH   3   4
ATOM      4  O   UNL     1       0.716   8.740   0.000  0.00  0.00    -0.465 OA
BRANCH   4   5
ATOM      5  C   UNL     1      -0.583   9.490   0.000  0.00  0.00    +0.229 C 
ATOM      6  C   UNL     1      -0.583  10.990   0.000  0.00  0.00    +0.048 C 
ENDBRANCH   4   5
ENDBRANCH   3   4
ENDBRANCH   2   3
BRANCH   8   9
ATOM      9  C   UNL     1       0.716   4.240   0.000  0.00  0.00    +0.309 C 
ATOM     12  O   UNL     1       2.015   4.990   0.000  0.00  0.00    -0.251 OA
BRANCH   9  10
ATOM     10  O   UNL     1       0.716   2.740   0.000  0.00  0.00    -0.480 OA
ATOM     11  H   UNL     1      -0.095   2.272   0.000  0.00  0.00    +0.295 HD
ENDBRANCH   9  10
ENDBRANCH   8   9
TORSDOF 5