REMARK  Name = 117554
REMARK  2 active torsions:
REMARK  status: ('A' for Active; 'I' for Inactive)
REMARK    1  A    between atoms: C_4  and  C_8
REMARK    2  A    between atoms: C_4  and  C_14
REMARK                            x       y       z     vdW  Elec       q    Type
REMARK                         _______ _______ _______ _____ _____    ______ ____
ROOT
ATOM      1  C   UNL     1       2.451  -3.257   0.000  0.00  0.00    +0.075 C 
ATOM      2  C   UNL     1       2.451  -4.757   0.000  0.00  0.00    +0.024 C 
ATOM      3  C   UNL     1       3.750  -5.507   0.000  0.00  0.00    +0.021 C 
ATOM     16  C   UNL     1       5.049  -4.757   0.000  0.00  0.00    +0.024 C 
ATOM     17  C   UNL     1       5.049  -3.257   0.000  0.00  0.00    +0.075 C 
ATOM     18  C   UNL     1       3.750  -2.507   0.000  0.00  0.00    +0.133 C 
ATOM     19  O   UNL     1       3.750  -1.007   0.000  0.00  0.00    -0.297 OA
ENDROOT
BRANCH   3   4
ATOM      4  C   UNL     1       5.049  -6.257   0.000  0.00  0.00    -0.037 A 
ATOM      5  C   UNL     1       5.049  -7.757   0.000  0.00  0.00    +0.004 A 
ATOM      6  C   UNL     1       6.348  -8.507   0.000  0.00  0.00    +0.000 A 
ATOM      7  C   UNL     1       7.647  -7.757   0.000  0.00  0.00    +0.000 A 
ATOM      8  C   UNL     1       7.647  -6.257   0.000  0.00  0.00    +0.000 A 
ATOM      9  C   UNL     1       6.348  -5.507   0.000  0.00  0.00    +0.004 A 
ENDBRANCH   3   4
BRANCH   3  10
ATOM     10  C   UNL     1       3.000  -6.806   0.000  0.00  0.00    -0.037 A 
ATOM     11  C   UNL     1       1.500  -6.806   0.000  0.00  0.00    +0.004 A 
ATOM     12  C   UNL     1       0.750  -8.105   0.000  0.00  0.00    +0.000 A 
ATOM     13  C   UNL     1       1.500  -9.404   0.000  0.00  0.00    +0.000 A 
ATOM     14  C   UNL     1       3.000  -9.404   0.000  0.00  0.00    +0.000 A 
ATOM     15  C   UNL     1       3.750  -8.105   0.000  0.00  0.00    +0.004 A 
ENDBRANCH   3  10
TORSDOF 2