REMARK  Name = 151901
REMARK  5 active torsions:
REMARK  status: ('A' for Active; 'I' for Inactive)
REMARK    1  A    between atoms: O_1  and  C_10
REMARK    2  A    between atoms: O_1  and  C_12
REMARK    3  A    between atoms: C_2  and  C_13
REMARK    4  A    between atoms: C_4  and  N_9
REMARK    5  A    between atoms: C_12  and  C_13
REMARK                            x       y       z     vdW  Elec       q    Type
REMARK                         _______ _______ _______ _____ _____    ______ ____
ROOT
ATOM      6  C   UNL     1      -3.348  -2.250   0.000  0.00  0.00    +0.405 C 
ATOM      7  O   UNL     1      -2.049  -1.500   0.000  0.00  0.00    -0.226 OA
ATOM      8  N   UNL     1      -4.647  -1.500   0.000  0.00  0.00    -0.251 N 
ATOM      9  H   UNL     1      -4.647  -0.516   0.000  0.00  0.00    +0.158 HD
ENDROOT
BRANCH   8  10
ATOM     10  C   UNL     1      -5.946  -2.250   0.000  0.00  0.00    +0.036 A 
ATOM     11  C   UNL     1      -5.946  -3.750   0.000  0.00  0.00    +0.023 A 
ATOM     12  C   UNL     1      -7.245  -4.500   0.000  0.00  0.00    +0.002 A 
ATOM     13  C   UNL     1      -8.544  -3.750   0.000  0.00  0.00    +0.000 A 
ATOM     14  C   UNL     1      -8.544  -2.250   0.000  0.00  0.00    +0.002 A 
ATOM     15  C   UNL     1      -7.245  -1.500   0.000  0.00  0.00    +0.023 A 
ENDBRANCH   8  10
BRANCH   6   1
ATOM      1  O   UNL     1      -3.348  -3.750   0.000  0.00  0.00    -0.449 OA
BRANCH   1   2
ATOM      2  C   UNL     1      -2.049  -4.500   0.000  0.00  0.00    +0.246 C 
BRANCH   2   3
ATOM      3  C   UNL     1      -0.750  -3.750   0.000  0.00  0.00    +0.129 C 
BRANCH   3   4
ATOM      4  C   UNL     1      -0.750  -2.250   0.000  0.00  0.00    -0.102 C 
ATOM      5  C   UNL     1      -0.750  -0.750   0.000  0.00  0.00    +0.004 C 
ENDBRANCH   3   4
ENDBRANCH   2   3
ENDBRANCH   1   2
ENDBRANCH   6   1
TORSDOF 5