REMARK  Name = 163920
REMARK  1 active torsions:
REMARK  status: ('A' for Active; 'I' for Inactive)
REMARK    1  A    between atoms: C_8  and  O_15
REMARK                            x       y       z     vdW  Elec       q    Type
REMARK                         _______ _______ _______ _____ _____    ______ ____
ROOT
ATOM      1  N   UNL     1      -1.029  -2.903   0.000  0.00  0.00    -0.344 N 
ATOM      2  H   UNL     1      -1.910  -1.689   0.000  0.00  0.00    +0.167 HD
ATOM      3  C   UNL     1      -1.492  -4.329   0.000  0.00  0.00    +0.074 A 
ATOM      4  C   UNL     1      -2.862  -4.939   0.000  0.00  0.00    +0.011 A 
ATOM      5  C   UNL     1      -4.076  -4.058   0.000  0.00  0.00    +0.056 A 
ATOM      6  C   UNL     1      -5.446  -4.668   0.000  0.00  0.00    +0.118 A 
ATOM      9  C   UNL     1      -5.603  -6.160   0.000  0.00  0.00    +0.046 A 
ATOM     10  C   UNL     1      -4.390  -7.041   0.000  0.00  0.00    +0.012 A 
ATOM     11  C   UNL     1      -3.019  -6.431   0.000  0.00  0.00    -0.016 A 
ATOM     12  C   UNL     1      -1.806  -7.313   0.000  0.00  0.00    +0.011 A 
ATOM     13  C   UNL     1      -0.435  -6.703   0.000  0.00  0.00    +0.030 A 
ATOM     14  C   UNL     1      -0.279  -5.211   0.000  0.00  0.00    +0.089 A 
ATOM     15  N   UNL     1       0.935  -4.329   0.000  0.00  0.00    -0.236 NA
ATOM     16  C   UNL     1       0.471  -2.903   0.000  0.00  0.00    +0.197 A 
ENDROOT
BRANCH   6   7
ATOM      7  O   UNL     1      -6.660  -3.786   0.000  0.00  0.00    -0.507 OA
ATOM      8  H   UNL     1      -6.562  -2.854   0.000  0.00  0.00    +0.292 HD
ENDBRANCH   6   7
TORSDOF 1