REMARK  Name = 14398
REMARK  6 active torsions:
REMARK  status: ('A' for Active; 'I' for Inactive)
REMARK    1  A    between atoms: N_2  and  C_18
REMARK    2  A    between atoms: N_3  and  C_19
REMARK    3  A    between atoms: N_5  and  C_20
REMARK    4  A    between atoms: C_12  and  C_21
REMARK    5  A    between atoms: C_13  and  N_22
REMARK    6  A    between atoms: C_16  and  C_21
REMARK                            x       y       z     vdW  Elec       q    Type
REMARK                         _______ _______ _______ _____ _____    ______ ____
ROOT
ATOM      1  O   UNL     1      -1.025   3.275   0.000  0.00  0.00    -0.246 OA
ATOM      2  C   UNL     1       0.275   4.024   0.000  0.00  0.00    +0.333 A 
ATOM      3  N   UNL     1       1.574   3.275   0.000  0.00  0.00    -0.280 N 
ATOM      4  C   UNL     1       1.574   1.775   0.000  0.00  0.00    +0.155 C 
ATOM      5  C   UNL     1       2.873   4.024   0.000  0.00  0.00    +0.168 A 
ATOM      6  C   UNL     1       2.873   5.524   0.000  0.00  0.00    +0.151 A 
ATOM      7  C   UNL     1       1.574   6.274   0.000  0.00  0.00    +0.282 A 
ATOM      8  O   UNL     1       1.574   7.774   0.000  0.00  0.00    -0.265 OA
ATOM      9  N   UNL     1       4.299   5.988   0.000  0.00  0.00    -0.325 N 
ATOM     10  C   UNL     1       4.763   7.415   0.000  0.00  0.00    +0.151 C 
ATOM     11  C   UNL     1       5.181   4.774   0.000  0.00  0.00    +0.117 A 
ATOM     22  N   UNL     1       4.299   3.561   0.000  0.00  0.00    -0.214 NA
ATOM     23  N   UNL     1       0.275   5.524   0.000  0.00  0.00    -0.262 N 
ATOM     24  C   UNL     1      -1.025   6.274   0.000  0.00  0.00    +0.157 C 
ENDROOT
BRANCH  11  12
ATOM     12  C   UNL     1       6.681   4.774   0.000  0.00  0.00    +0.109 C 
BRANCH  12  13
ATOM     13  C   UNL     1       7.431   6.074   0.000  0.00  0.00    -0.040 A 
ATOM     14  C   UNL     1       8.931   6.074   0.000  0.00  0.00    +0.006 A 
ATOM     15  C   UNL     1       9.681   7.373   0.000  0.00  0.00    +0.023 A 
ATOM     16  C   UNL     1       8.931   8.672   0.000  0.00  0.00    +0.025 A 
ATOM     20  C   UNL     1       7.431   8.672   0.000  0.00  0.00    +0.023 A 
ATOM     21  C   UNL     1       6.681   7.373   0.000  0.00  0.00    +0.006 A 
BRANCH  16  17
ATOM     17  N   UNL     1       9.681   9.971   0.000  0.00  0.00    -0.358 N 
ATOM     18  H   UNL     1       9.189  10.823   0.000  0.00  0.00    +0.142 HD
ATOM     19  H   UNL     1      10.665   9.971   0.000  0.00  0.00    +0.142 HD
ENDBRANCH  16  17
ENDBRANCH  12  13
ENDBRANCH  11  12
TORSDOF 3