REMARK  Name = 101345
REMARK  6 active torsions:
REMARK  status: ('A' for Active; 'I' for Inactive)
REMARK    1  A    between atoms: N_4  and  C_6
REMARK    2  A    between atoms: C_5  and  C_14
REMARK    3  A    between atoms: C_9  and  N_19
REMARK    4  A    between atoms: N_16  and  N_17
REMARK    5  A    between atoms: N_18  and  N_19
REMARK    6  A    between atoms: N_19  and  C_20
REMARK                            x       y       z     vdW  Elec       q    Type
REMARK                         _______ _______ _______ _____ _____    ______ ____
ROOT
ATOM      1  N   UNL     1      -0.668   5.171   0.000  0.00  0.00    -0.229 NA
ATOM      2  C   UNL     1      -0.028   3.814   0.000  0.00  0.00    +0.172 A 
ATOM     10  C   UNL     1      -1.121   2.786   0.000  0.00  0.00    +0.186 A 
ATOM     21  N   UNL     1      -2.436   3.507   0.000  0.00  0.00    -0.328 N 
ATOM     22  H   UNL     1      -3.792   2.867   0.000  0.00  0.00    +0.168 HD
ATOM     23  C   UNL     1      -2.156   4.981   0.000  0.00  0.00    +0.199 A 
ENDROOT
BRANCH   2   3
ATOM      3  C   UNL     1       1.446   3.535   0.000  0.00  0.00    +0.279 C 
ATOM      4  N   UNL     1       1.940   2.119   0.000  0.00  0.00    -0.248 N 
ATOM      5  H   UNL     1       2.908   1.935   0.000  0.00  0.00    +0.169 HD
ATOM      9  O   UNL     1       2.425   4.671   0.000  0.00  0.00    -0.267 OA
BRANCH   4   6
ATOM      6  N   UNL     1       0.962   0.982   0.000  0.00  0.00    -0.254 NA
ATOM      7  H   UNL     1       1.298   0.019   0.000  0.00  0.00    +0.140 HD
ATOM      8  H   UNL     1      -0.041   1.172   0.000  0.00  0.00    +0.140 HD
ENDBRANCH   4   6
ENDBRANCH   2   3
BRANCH  10  11
ATOM     11  N   UNL     1      -0.675   1.354   0.000  0.00  0.00    -0.113 NA
ATOM     12  N   UNL     1       0.788   1.023   0.000  0.00  0.00    -0.077 NA
BRANCH  12  13
ATOM     13  N   UNL     1       1.233  -0.409   0.000  0.00  0.00    -0.237 N 
ATOM     14  C   UNL     1       0.215  -1.511   0.000  0.00  0.00    +0.153 C 
BRANCH  13  15
ATOM     15  C   UNL     1       2.696  -0.740   0.000  0.00  0.00    +0.094 C 
ATOM     16  C   UNL     1       3.714   0.361   0.000  0.00  0.00    +0.024 C 
ATOM     17  C   UNL     1       5.177   0.031   0.000  0.00  0.00    +0.002 C 
ATOM     18  C   UNL     1       5.622  -1.402   0.000  0.00  0.00    +0.000 C 
ATOM     19  C   UNL     1       4.604  -2.503   0.000  0.00  0.00    +0.002 C 
ATOM     20  C   UNL     1       3.141  -2.173   0.000  0.00  0.00    +0.024 C 
ENDBRANCH  13  15
ENDBRANCH  12  13
ENDBRANCH  10  11
TORSDOF 5