REMARK  Name = 159686
REMARK  5 active torsions:
REMARK  status: ('A' for Active; 'I' for Inactive)
REMARK    1  A    between atoms: C_2  and  C_3
REMARK    2  A    between atoms: C_2  and  O_11
REMARK    3  A    between atoms: C_4  and  O_12
REMARK    4  A    between atoms: C_8  and  N_13
REMARK    5  A    between atoms: C_10  and  C_14
REMARK                            x       y       z     vdW  Elec       q    Type
REMARK                         _______ _______ _______ _____ _____    ______ ____
ROOT
ATOM      5  C   UNL     1       4.272  -1.400   0.000  0.00  0.00    +0.100 A 
ATOM      6  C   UNL     1       2.973  -2.150   0.000  0.00  0.00    +0.133 A 
ATOM      9  C   UNL     1       2.973  -3.650   0.000  0.00  0.00    +0.069 A 
ATOM     10  C   UNL     1       4.272  -4.399   0.000  0.00  0.00    +0.037 A 
ATOM     21  C   UNL     1       5.571  -3.650   0.000  0.00  0.00    +0.024 A 
ATOM     22  C   UNL     1       5.571  -2.150   0.000  0.00  0.00    +0.020 A 
ENDROOT
BRANCH  10  11
ATOM     11  N   UNL     1       4.272  -5.899   0.000  0.00  0.00    -0.281 N 
ATOM     12  H   UNL     1       3.420  -6.392   0.000  0.00  0.00    +0.155 HD
ATOM     13  C   UNL     1       5.571  -6.649   0.000  0.00  0.00    +0.248 C 
ATOM     20  O   UNL     1       5.571  -8.149   0.000  0.00  0.00    -0.270 OA
BRANCH  13  14
ATOM     14  C   UNL     1       6.870  -5.899   0.000  0.00  0.00    +0.037 A 
ATOM     15  C   UNL     1       8.169  -6.649   0.000  0.00  0.00    +0.013 A 
ATOM     16  C   UNL     1       9.468  -5.899   0.000  0.00  0.00    +0.001 A 
ATOM     17  C   UNL     1       9.468  -4.399   0.000  0.00  0.00    +0.000 A 
ATOM     18  C   UNL     1       8.169  -3.650   0.000  0.00  0.00    +0.001 A 
ATOM     19  C   UNL     1       6.870  -4.399   0.000  0.00  0.00    +0.013 A 
ENDBRANCH  13  14
ENDBRANCH  10  11
BRANCH   5   2
ATOM      1  O   UNL     1       5.571   0.851   0.000  0.00  0.00    -0.245 OA
ATOM      2  C   UNL     1       4.272   0.101   0.000  0.00  0.00    +0.340 C 
BRANCH   2   3
ATOM      3  O   UNL     1       2.973   0.851   0.000  0.00  0.00    -0.477 OA
ATOM      4  H   UNL     1       2.973   1.787   0.000  0.00  0.00    +0.295 HD
ENDBRANCH   2   3
ENDBRANCH   5   2
BRANCH   6   7
ATOM      7  O   UNL     1       1.674  -1.400   0.000  0.00  0.00    -0.506 OA
ATOM      8  H   UNL     1       1.674  -0.463   0.000  0.00  0.00    +0.292 HD
ENDBRANCH   6   7
TORSDOF 5