REMARK  Name = 154127
REMARK  2 active torsions:
REMARK  status: ('A' for Active; 'I' for Inactive)
REMARK    1  A    between atoms: C_8  and  N_16
REMARK    2  A    between atoms: C_11  and  N_16
REMARK                            x       y       z     vdW  Elec       q    Type
REMARK                         _______ _______ _______ _____ _____    ______ ____
ROOT
ATOM      1 CL   UNL     1      -2.973  -6.649   0.000  0.00  0.00    -0.079 Cl
ATOM      2  C   UNL     1      -1.674  -7.399   0.000  0.00  0.00    +0.101 A 
ATOM      3  C   UNL     1      -1.674  -8.899   0.000  0.00  0.00    +0.171 A 
ATOM      4  N   UNL     1      -0.375  -9.649   0.000  0.00  0.00    -0.134 NA
ATOM      5  N   UNL     1       0.924  -8.899   0.000  0.00  0.00    -0.131 NA
ATOM      6  C   UNL     1       0.924  -7.399   0.000  0.00  0.00    +0.161 A 
ATOM     15 CL   UNL     1      -2.973  -9.649   0.000  0.00  0.00    -0.059 Cl
ATOM     16  C   UNL     1      -0.375  -6.649   0.000  0.00  0.00    +0.104 A 
ATOM     17 CL   UNL     1      -0.375  -5.149   0.000  0.00  0.00    -0.078 Cl
ENDROOT
BRANCH   6   7
ATOM      7  N   UNL     1       2.223  -6.649   0.000  0.00  0.00    -0.324 N 
ATOM      8  H   UNL     1       3.076  -7.142   0.000  0.00  0.00    +0.148 HD
BRANCH   7   9
ATOM      9  C   UNL     1       2.223  -5.149   0.000  0.00  0.00    +0.072 C 
ATOM     10  C   UNL     1       3.522  -4.399   0.000  0.00  0.00    +0.022 C 
ATOM     11  C   UNL     1       3.522  -2.900   0.000  0.00  0.00    +0.002 C 
ATOM     12  C   UNL     1       2.223  -2.150   0.000  0.00  0.00    +0.000 C 
ATOM     13  C   UNL     1       0.924  -2.900   0.000  0.00  0.00    +0.002 C 
ATOM     14  C   UNL     1       0.924  -4.399   0.000  0.00  0.00    +0.022 C 
ENDBRANCH   7   9
ENDBRANCH   6   7
TORSDOF 2