REMARK  Name = 155698
REMARK  0 active torsions:
REMARK  status: ('A' for Active; 'I' for Inactive)
REMARK                            x       y       z     vdW  Elec       q    Type
REMARK                         _______ _______ _______ _____ _____    ______ ____
ROOT
ATOM      1  H   UNL     1      -4.647  -0.750   0.000  0.00  0.00    +0.152 HD
ATOM      2  N   UNL     1      -4.647  -2.250   0.000  0.00  0.00    -0.313 N 
ATOM      3  C   UNL     1      -5.946  -3.000   0.000  0.00  0.00    +0.045 A 
ATOM      4  C   UNL     1      -5.946  -4.500   0.000  0.00  0.00    +0.034 A 
ATOM      5  C   UNL     1      -7.245  -5.250   0.000  0.00  0.00    +0.017 A 
ATOM      6  C   UNL     1      -8.544  -4.500   0.000  0.00  0.00    +0.001 A 
ATOM      7  C   UNL     1      -8.544  -3.000   0.000  0.00  0.00    +0.002 A 
ATOM      8  S   UNL     1      -4.647  -5.250   0.000  0.00  0.00    -0.084 S 
ATOM      9  C   UNL     1      -3.348  -4.500   0.000  0.00  0.00    +0.052 A 
ATOM     10  C   UNL     1      -2.049  -5.250   0.000  0.00  0.00    +0.127 A 
ATOM     11  N   UNL     1      -0.750  -4.500   0.000  0.00  0.00    -0.262 NA
ATOM     12  C   UNL     1      -0.750  -3.000   0.000  0.00  0.00    +0.112 A 
ATOM     13  C   UNL     1      -2.049  -2.250   0.000  0.00  0.00    +0.044 A 
ATOM     14  C   UNL     1      -7.245  -2.250   0.000  0.00  0.00    +0.024 A 
ATOM     15  C   UNL     1      -3.348  -3.000   0.000  0.00  0.00    +0.048 A 
ENDROOT
TORSDOF 0