REMARK  Name = 1847
REMARK  4 active torsions:
REMARK  status: ('A' for Active; 'I' for Inactive)
REMARK    1  A    between atoms: N_1  and  C_11
REMARK    2  A    between atoms: N_2  and  C_4
REMARK    3  A    between atoms: C_13  and  S_15
REMARK    4  A    between atoms: S_15  and  O_18
REMARK                            x       y       z     vdW  Elec       q    Type
REMARK                         _______ _______ _______ _____ _____    ______ ____
ROOT
ATOM      9  C   UNL     1      -4.272  -5.899   0.000  0.00  0.00    +0.086 A 
ATOM     10  C   UNL     1      -5.571  -6.649   0.000  0.00  0.00    +0.031 A 
ATOM     11  C   UNL     1      -6.870  -5.899   0.000  0.00  0.00    +0.031 A 
ATOM     12  C   UNL     1      -6.870  -4.399   0.000  0.00  0.00    +0.117 A 
ATOM     18  C   UNL     1      -5.571  -3.650   0.000  0.00  0.00    +0.031 A 
ATOM     19  C   UNL     1      -4.272  -4.399   0.000  0.00  0.00    +0.031 A 
ENDROOT
BRANCH  12  13
ATOM     13  S   UNL     1      -8.169  -3.650   0.000  0.00  0.00    +0.110 S 
ATOM     16  O   UNL     1      -9.468  -2.900   0.000  0.00  0.00    -0.142 OA
ATOM     17  O   UNL     1      -7.419  -2.350   0.000  0.00  0.00    -0.142 OA
BRANCH  13  14
ATOM     14  O   UNL     1      -8.919  -4.949   0.000  0.00  0.00    -0.250 OA
ATOM     15  H   UNL     1      -9.889  -4.949   0.000  0.00  0.00    +0.245 HD
ENDBRANCH  13  14
ENDBRANCH  12  13
BRANCH   9   1
ATOM      1  N   UNL     1      -2.973  -6.649   0.000  0.00  0.00    -0.149 NA
ATOM      2  N   UNL     1      -2.973  -8.149   0.000  0.00  0.00    -0.149 NA
BRANCH   2   3
ATOM      3  C   UNL     1      -1.674  -8.899   0.000  0.00  0.00    +0.086 A 
ATOM      4  C   UNL     1      -1.674 -10.400   0.000  0.00  0.00    +0.029 A 
ATOM      5  C   UNL     1      -0.375 -11.150   0.000  0.00  0.00    +0.002 A 
ATOM      6  C   UNL     1       0.924 -10.400   0.000  0.00  0.00    +0.000 A 
ATOM      7  C   UNL     1       0.924  -8.899   0.000  0.00  0.00    +0.002 A 
ATOM      8  C   UNL     1      -0.375  -8.149   0.000  0.00  0.00    +0.029 A 
ENDBRANCH   2   3
ENDBRANCH   9   1
TORSDOF 4