REMARK  Name = 204939
REMARK  7 active torsions:
REMARK  status: ('A' for Active; 'I' for Inactive)
REMARK    1  A    between atoms: C_2  and  O_15
REMARK    2  A    between atoms: C_4  and  C_18
REMARK    3  A    between atoms: O_15  and  C_16
REMARK    4  A    between atoms: C_16  and  C_17
REMARK    5  A    between atoms: C_18  and  O_20
REMARK    6  A    between atoms: O_20  and  C_21
REMARK    7  A    between atoms: C_21  and  C_22
REMARK                            x       y       z     vdW  Elec       q    Type
REMARK                         _______ _______ _______ _____ _____    ______ ____
ROOT
ATOM      1  N   UNL     1      -0.275  -7.024   0.000  0.00  0.00    -0.240 NA
ATOM      2  C   UNL     1      -1.574  -7.774   0.000  0.00  0.00    +0.076 A 
ATOM      3  C   UNL     1      -1.574  -9.274   0.000  0.00  0.00    +0.029 A 
ATOM      4  C   UNL     1      -2.873 -10.025   0.000  0.00  0.00    +0.010 A 
ATOM      5  C   UNL     1      -4.172  -9.274   0.000  0.00  0.00    -0.017 A 
ATOM      6  C   UNL     1      -5.471 -10.025   0.000  0.00  0.00    +0.008 A 
ATOM      7  C   UNL     1      -6.770  -9.274   0.000  0.00  0.00    +0.001 A 
ATOM      8  C   UNL     1      -6.770  -7.774   0.000  0.00  0.00    +0.001 A 
ATOM      9  C   UNL     1      -5.471  -7.024   0.000  0.00  0.00    +0.009 A 
ATOM     10  C   UNL     1      -4.172  -7.774   0.000  0.00  0.00    -0.005 A 
ATOM     11  C   UNL     1      -2.873  -7.024   0.000  0.00  0.00    +0.050 A 
ATOM     12  C   UNL     1      -2.873  -5.524   0.000  0.00  0.00    +0.132 A 
ATOM     16  C   UNL     1      -1.574  -4.774   0.000  0.00  0.00    +0.081 A 
ATOM     17  C   UNL     1      -0.275  -5.524   0.000  0.00  0.00    +0.152 A 
ENDROOT
BRANCH  17  18
ATOM     18  C   UNL     1       1.025  -4.774   0.000  0.00  0.00    +0.358 C 
ATOM     22  O   UNL     1       2.324  -5.524   0.000  0.00  0.00    -0.243 OA
BRANCH  18  19
ATOM     19  O   UNL     1       1.025  -3.275   0.000  0.00  0.00    -0.460 OA
BRANCH  19  20
ATOM     20  C   UNL     1      -0.275  -2.525   0.000  0.00  0.00    +0.229 C 
ATOM     21  C   UNL     1      -0.275  -1.025   0.000  0.00  0.00    +0.048 C 
ENDBRANCH  19  20
ENDBRANCH  18  19
ENDBRANCH  17  18
BRANCH  12  13
ATOM     13  O   UNL     1      -4.172  -4.774   0.000  0.00  0.00    -0.491 OA
BRANCH  13  14
ATOM     14  C   UNL     1      -4.172  -3.275   0.000  0.00  0.00    +0.226 C 
ATOM     15  C   UNL     1      -2.873  -2.525   0.000  0.00  0.00    +0.048 C 
ENDBRANCH  13  14
ENDBRANCH  12  13
TORSDOF 5