REMARK  Name = 142335
REMARK  4 active torsions:
REMARK  status: ('A' for Active; 'I' for Inactive)
REMARK    1  A    between atoms: N_1  and  C_12
REMARK    2  A    between atoms: O_6  and  C_23
REMARK    3  A    between atoms: O_6  and  C_28
REMARK    4  A    between atoms: C_19  and  C_21
REMARK                            x       y       z     vdW  Elec       q    Type
REMARK                         _______ _______ _______ _____ _____    ______ ____
ROOT
ATOM      1  N   UNL     1     -10.150  -2.403   0.000  0.00  0.00    -0.315 N 
ATOM      2  C   UNL     1      -8.683  -2.715   0.000  0.00  0.00    +0.104 A 
ATOM      3  C   UNL     1      -8.526  -4.207   0.000  0.00  0.00    +0.045 A 
ATOM     18  C   UNL     1      -9.897  -4.817   0.000  0.00  0.00    +0.011 A 
ATOM     19  C   UNL     1     -10.360  -6.243   0.000  0.00  0.00    +0.011 A 
ATOM     20  C   UNL     1     -11.827  -6.555   0.000  0.00  0.00    +0.001 A 
ATOM     21  C   UNL     1     -12.831  -5.440   0.000  0.00  0.00    +0.002 A 
ATOM     22  C   UNL     1     -12.368  -4.014   0.000  0.00  0.00    +0.027 A 
ATOM     23  C   UNL     1     -10.900  -3.702   0.000  0.00  0.00    +0.054 A 
ENDROOT
BRANCH   3   4
ATOM      4  C   UNL     1      -7.227  -4.957   0.000  0.00  0.00    +0.170 A 
ATOM      5  N   UNL     1      -5.928  -4.207   0.000  0.00  0.00    -0.175 NA
ATOM      6  C   UNL     1      -4.629  -4.957   0.000  0.00  0.00    +0.328 A 
ATOM     14  N   UNL     1      -4.629  -6.457   0.000  0.00  0.00    -0.164 NA
ATOM     15  C   UNL     1      -5.928  -7.207   0.000  0.00  0.00    +0.229 A 
ATOM     16 CL   UNL     1      -5.928  -8.707   0.000  0.00  0.00    -0.041 Cl
ATOM     17  N   UNL     1      -7.227  -6.457   0.000  0.00  0.00    -0.197 NA
BRANCH   6   7
ATOM      7  O   UNL     1      -3.330  -4.207   0.000  0.00  0.00    -0.424 OA
BRANCH   7   8
ATOM      8  C   UNL     1      -3.330  -2.707   0.000  0.00  0.00    +0.132 A 
ATOM      9  C   UNL     1      -2.031  -1.957   0.000  0.00  0.00    +0.046 A 
ATOM     10  C   UNL     1      -2.031  -0.457   0.000  0.00  0.00    +0.004 A 
ATOM     11  C   UNL     1      -3.330   0.293   0.000  0.00  0.00    +0.000 A 
ATOM     12  C   UNL     1      -4.629  -0.457   0.000  0.00  0.00    +0.004 A 
ATOM     13  C   UNL     1      -4.629  -1.957   0.000  0.00  0.00    +0.046 A 
ENDBRANCH   7   8
ENDBRANCH   6   7
ENDBRANCH   3   4
BRANCH   1  24
ATOM     24  C   UNL     1     -10.760  -1.033   0.000  0.00  0.00    +0.047 A 
ATOM     25  C   UNL     1     -12.252  -0.876   0.000  0.00  0.00    +0.026 A 
ATOM     26  C   UNL     1     -12.862   0.495   0.000  0.00  0.00    +0.002 A 
ATOM     27  C   UNL     1     -11.981   1.708   0.000  0.00  0.00    +0.000 A 
ATOM     28  C   UNL     1     -10.489   1.551   0.000  0.00  0.00    +0.002 A 
ATOM     29  C   UNL     1      -9.879   0.181   0.000  0.00  0.00    +0.026 A 
ENDBRANCH   1  24
TORSDOF 4