REMARK  Name = 1620
REMARK  2 active torsions:
REMARK  status: ('A' for Active; 'I' for Inactive)
REMARK    1  A    between atoms: C_3  and  C_9
REMARK    2  A    between atoms: C_3  and  N_13
REMARK                            x       y       z     vdW  Elec       q    Type
REMARK                         _______ _______ _______ _____ _____    ______ ____
ROOT
ATOM      1  N   UNL     1      -3.630  -4.462   0.000  0.00  0.00    -0.220 NA
ATOM      2  C   UNL     1      -3.630  -2.962   0.000  0.00  0.00    +0.225 A 
ATOM      3  N   UNL     1      -2.330  -2.212   0.000  0.00  0.00    -0.216 NA
ATOM      4  C   UNL     1      -1.031  -2.962   0.000  0.00  0.00    +0.161 A 
ATOM      5  N   UNL     1       0.395  -2.498   0.000  0.00  0.00    -0.260 N 
ATOM      6  H   UNL     1       0.699  -1.562   0.000  0.00  0.00    +0.191 HD
ATOM      7  N   UNL     1       1.277  -3.712   0.000  0.00  0.00    -0.180 NA
ATOM      8  C   UNL     1       0.395  -4.925   0.000  0.00  0.00    +0.147 A 
ATOM      9  C   UNL     1      -1.031  -4.462   0.000  0.00  0.00    +0.078 A 
ATOM     10  C   UNL     1      -2.330  -5.212   0.000  0.00  0.00    +0.133 A 
ATOM     11  N   UNL     1      -2.330  -6.712   0.000  0.00  0.00    -0.321 N 
ATOM     12  H   UNL     1      -1.478  -7.204   0.000  0.00  0.00    +0.148 HD
ENDROOT
BRANCH  11  13
ATOM     13  C   UNL     1      -3.630  -7.462   0.000  0.00  0.00    +0.177 C 
BRANCH  13  14
ATOM     14  C   UNL     1      -4.928  -6.712   0.000  0.00  0.00    +0.122 A 
ATOM     15  C   UNL     1      -5.085  -5.220   0.000  0.00  0.00    +0.046 A 
ATOM     16  C   UNL     1      -6.553  -4.908   0.000  0.00  0.00    +0.041 A 
ATOM     17  C   UNL     1      -7.303  -6.207   0.000  0.00  0.00    +0.195 A 
ATOM     18  O   UNL     1      -6.299  -7.322   0.000  0.00  0.00    -0.466 OA
ENDBRANCH  13  14
ENDBRANCH  11  13
TORSDOF 2