REMARK  Name = 114831
REMARK  9 active torsions:
REMARK  status: ('A' for Active; 'I' for Inactive)
REMARK    1  A    between atoms: C_3  and  C_9
REMARK    2  A    between atoms: C_6  and  C_10
REMARK    3  A    between atoms: C_7  and  O_11
REMARK    4  A    between atoms: O_8  and  C_9
REMARK    5  A    between atoms: C_10  and  N_12
REMARK    6  A    between atoms: N_12  and  C_13
REMARK    7  A    between atoms: N_12  and  C_14
REMARK    8  A    between atoms: C_14  and  C_15
REMARK    9  A    between atoms: C_15  and  O_17
REMARK                            x       y       z     vdW  Elec       q    Type
REMARK                         _______ _______ _______ _____ _____    ______ ____
ROOT
ATOM      1  O   UNL     1      -7.245  -0.750   0.000  0.00  0.00    -0.457 OA
ATOM      2  C   UNL     1      -5.946  -1.500   0.000  0.00  0.00    +0.164 A 
ATOM     11  C   UNL     1      -5.946  -3.000   0.000  0.00  0.00    +0.204 A 
ATOM     14  C   UNL     1      -7.245  -3.750   0.000  0.00  0.00    +0.227 A 
ATOM     15  C   UNL     1      -8.544  -3.000   0.000  0.00  0.00    +0.098 A 
ATOM     16  O   UNL     1      -7.245  -5.250   0.000  0.00  0.00    -0.284 OA
ATOM     17  C   UNL     1      -8.544  -1.500   0.000  0.00  0.00    +0.134 A 
ENDROOT
BRANCH  11  12
ATOM     12  O   UNL     1      -4.647  -3.750   0.000  0.00  0.00    -0.501 OA
ATOM     13  H   UNL     1      -4.647  -4.687   0.000  0.00  0.00    +0.292 HD
ENDBRANCH  11  12
BRANCH   2   3
ATOM      3  C   UNL     1      -4.647  -0.750   0.000  0.00  0.00    +0.163 C 
BRANCH   3   4
ATOM      4  N   UNL     1      -3.348  -1.500   0.000  0.00  0.00    -0.288 NA
ATOM     10  C   UNL     1      -2.049  -0.750   0.000  0.00  0.00    +0.105 C 
BRANCH   4   5
ATOM      5  C   UNL     1      -3.348  -3.000   0.000  0.00  0.00    +0.205 C 
BRANCH   5   6
ATOM      6  C   UNL     1      -2.049  -3.750   0.000  0.00  0.00    +0.319 C 
ATOM      9  O   UNL     1      -0.750  -3.000   0.000  0.00  0.00    -0.250 OA
BRANCH   6   7
ATOM      7  O   UNL     1      -2.049  -5.250   0.000  0.00  0.00    -0.480 OA
ATOM      8  H   UNL     1      -2.860  -5.718   0.000  0.00  0.00    +0.295 HD
ENDBRANCH   6   7
ENDBRANCH   5   6
ENDBRANCH   4   5
ENDBRANCH   3   4
ENDBRANCH   2   3
BRANCH  17  18
ATOM     18  C   UNL     1      -9.843  -0.750   0.000  0.00  0.00    +0.230 C 
BRANCH  18  19
ATOM     19  O   UNL     1     -11.142  -1.500   0.000  0.00  0.00    -0.387 OA
ATOM     20  H   UNL     1     -11.982  -1.015   0.000  0.00  0.00    +0.210 HD
ENDBRANCH  18  19
ENDBRANCH  17  18
TORSDOF 8