REMARK  Name = 110300
REMARK  4 active torsions:
REMARK  status: ('A' for Active; 'I' for Inactive)
REMARK    1  A    between atoms: C_6  and  C_21
REMARK    2  A    between atoms: C_9  and  C_19
REMARK    3  A    between atoms: C_12  and  C_24
REMARK    4  A    between atoms: C_16  and  C_17
REMARK                            x       y       z     vdW  Elec       q    Type
REMARK                         _______ _______ _______ _____ _____    ______ ____
ROOT
ATOM     11  C   UNL     1      -8.521  -7.285   0.000  0.00  0.00    +0.037 A 
ATOM     12  C   UNL     1      -7.222  -8.035   0.000  0.00  0.00    +0.014 A 
ATOM     13  C   UNL     1      -5.923  -7.285   0.000  0.00  0.00    +0.014 A 
ATOM     14  C   UNL     1      -5.923  -5.785   0.000  0.00  0.00    +0.037 A 
ATOM     25  C   UNL     1      -7.222  -5.035   0.000  0.00  0.00    +0.014 A 
ATOM     26  C   UNL     1      -8.521  -5.785   0.000  0.00  0.00    +0.014 A 
ENDROOT
BRANCH  11   9
ATOM      1  S   UNL     1     -12.489  -9.675   0.000  0.00  0.00    -0.060 S 
ATOM      2  C   UNL     1     -13.493 -10.790   0.000  0.00  0.00    +0.071 A 
ATOM      3  C   UNL     1     -12.743 -12.089   0.000  0.00  0.00    +0.047 A 
ATOM      4  C   UNL     1     -13.353 -13.459   0.000  0.00  0.00    +0.066 C 
ATOM      5  N   UNL     1     -11.275 -11.777   0.000  0.00  0.00    -0.230 NA
ATOM      6  C   UNL     1     -11.119 -10.285   0.000  0.00  0.00    +0.165 A 
ATOM      7  N   UNL     1      -9.820  -9.535   0.000  0.00  0.00    -0.261 N 
ATOM      8  H   UNL     1      -8.967 -10.028   0.000  0.00  0.00    +0.157 HD
ATOM      9  C   UNL     1      -9.820  -8.035   0.000  0.00  0.00    +0.250 C 
ATOM     10  O   UNL     1     -11.119  -7.285   0.000  0.00  0.00    -0.270 OA
ENDBRANCH  11   9
BRANCH  14  15
ATOM     15  C   UNL     1      -4.623  -5.035   0.000  0.00  0.00    +0.250 C 
ATOM     16  N   UNL     1      -3.325  -5.785   0.000  0.00  0.00    -0.261 N 
ATOM     17  H   UNL     1      -3.325  -6.770   0.000  0.00  0.00    +0.157 HD
ATOM     18  C   UNL     1      -2.025  -5.035   0.000  0.00  0.00    +0.165 A 
ATOM     19  S   UNL     1      -1.869  -3.544   0.000  0.00  0.00    -0.060 S 
ATOM     20  C   UNL     1      -0.401  -3.232   0.000  0.00  0.00    +0.071 A 
ATOM     21  C   UNL     1       0.349  -4.531   0.000  0.00  0.00    +0.047 A 
ATOM     22  C   UNL     1       1.840  -4.688   0.000  0.00  0.00    +0.066 C 
ATOM     23  N   UNL     1      -0.655  -5.646   0.000  0.00  0.00    -0.230 NA
ATOM     24  O   UNL     1      -4.623  -3.535   0.000  0.00  0.00    -0.270 OA
ENDBRANCH  14  15
TORSDOF 2