REMARK  Name = 120961
REMARK  11 active torsions:
REMARK  status: ('A' for Active; 'I' for Inactive)
REMARK    1  A    between atoms: O_1  and  C_11
REMARK    2  A    between atoms: O_1  and  C_13
REMARK    3  A    between atoms: C_3  and  C_11
REMARK    4  A    between atoms: C_6  and  N_8
REMARK    5  A    between atoms: C_13  and  C_14
REMARK    6  A    between atoms: C_14  and  N_15
REMARK    7  A    between atoms: N_15  and  C_16
REMARK    8  A    between atoms: C_16  and  C_17
REMARK    9  A    between atoms: C_16  and  C_19
REMARK   10  A    between atoms: C_17  and  C_18
REMARK   11  A    between atoms: C_19  and  C_20
REMARK                            x       y       z     vdW  Elec       q    Type
REMARK                         _______ _______ _______ _____ _____    ______ ____
ROOT
ATOM     11  C   UNL     1       5.471   5.524   0.000  0.00  0.00    +0.339 C 
ATOM     12  O   UNL     1       5.471   7.024   0.000  0.00  0.00    -0.245 OA
ENDROOT
BRANCH  11  13
ATOM     13  C   UNL     1       4.172   4.774   0.000  0.00  0.00    +0.059 A 
ATOM     14  C   UNL     1       4.172   3.275   0.000  0.00  0.00    +0.021 A 
ATOM     15  C   UNL     1       2.873   2.525   0.000  0.00  0.00    +0.085 A 
ATOM     16  C   UNL     1       1.573   3.275   0.000  0.00  0.00    +0.273 A 
ATOM     20  C   UNL     1       1.573   4.774   0.000  0.00  0.00    +0.085 A 
ATOM     21  C   UNL     1       2.873   5.524   0.000  0.00  0.00    +0.021 A 
BRANCH  16  17
ATOM     17  N   UNL     1       0.275   2.525   0.000  0.00  0.00    +0.080 N 
ATOM     18  O   UNL     1       0.275   1.025   0.000  0.00  0.00    +0.041 OA
ATOM     19  O   UNL     1      -1.025   3.275   0.000  0.00  0.00    -0.576 OA
ENDBRANCH  16  17
ENDBRANCH  11  13
BRANCH  11   1
ATOM      1  O   UNL     1       6.770   4.774   0.000  0.00  0.00    -0.460 OA
BRANCH   1   2
ATOM      2  C   UNL     1       7.919   5.739   0.000  0.00  0.00    +0.247 C 
BRANCH   2   3
ATOM      3  C   UNL     1       9.328   5.226   0.000  0.00  0.00    +0.122 C 
BRANCH   3   4
ATOM      4  N   UNL     1       9.589   3.748   0.000  0.00  0.00    -0.310 NA
ATOM      5  H   UNL     1      10.547   3.400   0.000  0.00  0.00    +0.122 HD
BRANCH   4   6
ATOM      6  C   UNL     1       8.440   2.784   0.000  0.00  0.00    +0.053 C 
BRANCH   6   7
ATOM      7  C   UNL     1       8.700   1.307   0.000  0.00  0.00    +0.015 C 
ATOM      8  C   UNL     1       7.551   0.343   0.000  0.00  0.00    +0.005 C 
ENDBRANCH   6   7
BRANCH   6   9
ATOM      9  C   UNL     1       7.030   3.297   0.000  0.00  0.00    +0.015 C 
ATOM     10  C   UNL     1       5.881   2.333   0.000  0.00  0.00    +0.005 C 
ENDBRANCH   6   9
ENDBRANCH   4   6
ENDBRANCH   3   4
ENDBRANCH   2   3
ENDBRANCH   1   2
ENDBRANCH  11   1
TORSDOF 9