REMARK  Name = 13785
REMARK  4 active torsions:
REMARK  status: ('A' for Active; 'I' for Inactive)
REMARK    1  A    between atoms: C_2  and  AS_13
REMARK    2  A    between atoms: C_11  and  N_12
REMARK    3  A    between atoms: AS_13  and  O_14
REMARK    4  A    between atoms: AS_13  and  O_15
REMARK                            x       y       z     vdW  Elec       q    Type
REMARK                         _______ _______ _______ _____ _____    ______ ____
ROOT
ATOM      7  C   UNL     1       1.574  -4.774   0.000  0.00  0.00    +0.000 A 
ATOM      8  C   UNL     1       0.275  -5.524   0.000  0.00  0.00    +0.000 A 
ATOM      9  C   UNL     1      -1.025  -4.774   0.000  0.00  0.00    +0.000 A 
ATOM     10  C   UNL     1      -2.324  -5.524   0.000  0.00  0.00    +0.000 A 
ATOM     11  C   UNL     1      -2.324  -7.024   0.000  0.00  0.00    +0.000 A 
ATOM     12  C   UNL     1      -1.025  -7.774   0.000  0.00  0.00    +0.000 A 
ATOM     16  C   UNL     1       0.275  -7.024   0.000  0.00  0.00    +0.000 A 
ATOM     17  C   UNL     1       1.574  -7.774   0.000  0.00  0.00    +0.000 A 
ATOM     18  C   UNL     1       2.873  -7.024   0.000  0.00  0.00    +0.000 A 
ATOM     19  C   UNL     1       2.873  -5.524   0.000  0.00  0.00    +0.000 A 
ENDROOT
BRANCH  12  13
ATOM     13  N   UNL     1      -1.025  -9.274   0.000  0.00  0.00    +0.000 N 
ATOM     14  H   UNL     1      -0.172  -9.767   0.000  0.00  0.00    +0.000 HD
ATOM     15  H   UNL     1      -1.877  -9.767   0.000  0.00  0.00    +0.000 HD
ENDBRANCH  12  13
BRANCH   7   2
ATOM      1  O   UNL     1       3.074  -3.275   0.000  0.00  0.00    +0.000 OA
ATOM      2 AS   UNL     1       1.574  -3.275   0.000  0.00  0.00    +0.000 As
BRANCH   2   3
ATOM      3  O   UNL     1       0.074  -3.275   0.000  0.00  0.00    +0.000 OA
ATOM      4  H   UNL     1      -0.411  -2.434   0.000  0.00  0.00    +0.000 HD
ENDBRANCH   2   3
BRANCH   2   5
ATOM      5  O   UNL     1       1.574  -1.775   0.000  0.00  0.00    +0.000 OA
ATOM      6  H   UNL     1       2.414  -1.289   0.000  0.00  0.00    +0.000 HD
ENDBRANCH   2   5
ENDBRANCH   7   2
TORSDOF 4