REMARK  Name = 100058
REMARK  4 active torsions:
REMARK  status: ('A' for Active; 'I' for Inactive)
REMARK    1  A    between atoms: N_1  and  C_19
REMARK    2  A    between atoms: C_7  and  O_20
REMARK    3  A    between atoms: C_16  and  O_18
REMARK    4  A    between atoms: O_20  and  C_21
REMARK                            x       y       z     vdW  Elec       q    Type
REMARK                         _______ _______ _______ _____ _____    ______ ____
ROOT
ATOM      1  N   UNL     1       2.026   8.097   0.000  0.00  0.00    -0.301 NA
ATOM      2  C   UNL     1       1.166   9.326   0.000  0.00  0.00    +0.105 C 
ATOM      3  C   UNL     1       1.276   6.798   0.000  0.00  0.00    +0.086 C 
ATOM      4  C   UNL     1       1.789   5.388   0.000  0.00  0.00    +0.035 C 
ATOM      5  C   UNL     1       3.199   4.875   0.000  0.00  0.00    +0.056 C 
ATOM      6  C   UNL     1       3.587   3.426   0.000  0.00  0.00    +0.191 C 
ATOM      7  C   UNL     1       2.527   2.366   0.000  0.00  0.00    +0.081 C 
ATOM      8  C   UNL     1       1.078   2.754   0.000  0.00  0.00    +0.141 C 
ATOM     11  C   UNL     1       0.689   4.203   0.000  0.00  0.00    +0.001 C 
ATOM     12  O   UNL     1       5.087   3.426   0.000  0.00  0.00    -0.484 OA
ATOM     13  C   UNL     1       5.797   4.875   0.000  0.00  0.00    +0.167 A 
ATOM     14  C   UNL     1       7.096   5.625   0.000  0.00  0.00    +0.162 A 
ATOM     17  C   UNL     1       7.096   7.125   0.000  0.00  0.00    +0.050 A 
ATOM     18  C   UNL     1       5.797   7.875   0.000  0.00  0.00    +0.009 A 
ATOM     19  C   UNL     1       4.498   7.125   0.000  0.00  0.00    -0.026 A 
ATOM     20  C   UNL     1       1.750   5.263   0.000  0.00  0.00    -0.013 C 
ATOM     21  C   UNL     1       4.498   5.625   0.000  0.00  0.00    +0.016 A 
ATOM     22  C   UNL     1       3.504   8.357   0.000  0.00  0.00    +0.119 C 
ENDROOT
BRANCH   8   9
ATOM      9  O   UNL     1       0.017   1.693   0.000  0.00  0.00    -0.388 OA
ATOM     10  H   UNL     1      -0.920   1.944   0.000  0.00  0.00    +0.210 HD
ENDBRANCH   8   9
BRANCH  14  15
ATOM     15  O   UNL     1       8.395   4.875   0.000  0.00  0.00    -0.491 OA
ATOM     16  C   UNL     1       9.694   5.625   0.000  0.00  0.00    +0.277 C 
ENDBRANCH  14  15
TORSDOF 2