REMARK  Name = 107701
REMARK  7 active torsions:
REMARK  status: ('A' for Active; 'I' for Inactive)
REMARK    1  A    between atoms: N_1  and  C_28
REMARK    2  A    between atoms: S_4  and  C_21
REMARK    3  A    between atoms: S_4  and  C_29
REMARK    4  A    between atoms: N_5  and  C_30
REMARK    5  A    between atoms: C_12  and  C_30
REMARK    6  A    between atoms: C_16  and  C_30
REMARK    7  A    between atoms: C_22  and  C_29
REMARK                            x       y       z     vdW  Elec       q    Type
REMARK                         _______ _______ _______ _____ _____    ______ ____
ROOT
ATOM      1  N   UNL     1     -10.263   2.776   0.000  0.00  0.00    -0.216 N 
ATOM      2  C   UNL     1     -11.562   3.526   0.000  0.00  0.00    +0.178 C 
ATOM      3  C   UNL     1      -8.964   3.526   0.000  0.00  0.00    +0.349 A 
ATOM      4  N   UNL     1      -7.665   2.776   0.000  0.00  0.00    -0.246 N 
ATOM     18  C   UNL     1      -7.665   1.276   0.000  0.00  0.00    +0.290 A 
ATOM     19  C   UNL     1      -8.964   0.526   0.000  0.00  0.00    +0.182 A 
ATOM     28  O   UNL     1      -6.366   0.526   0.000  0.00  0.00    -0.265 OA
ATOM     29  O   UNL     1      -8.964   5.026   0.000  0.00  0.00    -0.245 OA
ATOM     30  N   UNL     1     -10.263   1.276   0.000  0.00  0.00    -0.155 NA
ENDROOT
BRANCH   4   5
ATOM      5  C   UNL     1      -6.366   3.526   0.000  0.00  0.00    +0.156 C 
BRANCH   5   6
ATOM      6  C   UNL     1      -5.067   2.776   0.000  0.00  0.00    -0.020 A 
ATOM      7  C   UNL     1      -5.067   1.276   0.000  0.00  0.00    +0.006 A 
ATOM      8  C   UNL     1      -3.768   0.526   0.000  0.00  0.00    +0.000 A 
ATOM      9  C   UNL     1      -2.469   1.276   0.000  0.00  0.00    +0.000 A 
ATOM     10  C   UNL     1      -2.469   2.776   0.000  0.00  0.00    +0.000 A 
ATOM     11  C   UNL     1      -3.768   3.526   0.000  0.00  0.00    +0.006 A 
ENDBRANCH   5   6
BRANCH   5  12
ATOM     12  C   UNL     1      -6.366   5.026   0.000  0.00  0.00    -0.020 A 
ATOM     13  C   UNL     1      -7.665   5.776   0.000  0.00  0.00    +0.006 A 
ATOM     14  C   UNL     1      -7.665   7.276   0.000  0.00  0.00    +0.000 A 
ATOM     15  C   UNL     1      -6.366   8.026   0.000  0.00  0.00    +0.000 A 
ATOM     16  C   UNL     1      -5.067   7.276   0.000  0.00  0.00    +0.000 A 
ATOM     17  C   UNL     1      -5.067   5.776   0.000  0.00  0.00    +0.006 A 
ENDBRANCH   5  12
ENDBRANCH   4   5
BRANCH  19  20
ATOM     20  S   UNL     1      -8.964  -0.974   0.000  0.00  0.00    -0.094 S 
BRANCH  20  21
ATOM     21  C   UNL     1     -10.263  -1.724   0.000  0.00  0.00    +0.111 C 
BRANCH  21  22
ATOM     22  C   UNL     1     -11.562  -0.974   0.000  0.00  0.00    -0.037 A 
ATOM     23  C   UNL     1     -12.861  -1.724   0.000  0.00  0.00    +0.004 A 
ATOM     24  C   UNL     1     -14.160  -0.974   0.000  0.00  0.00    +0.000 A 
ATOM     25  C   UNL     1     -14.160   0.526   0.000  0.00  0.00    +0.000 A 
ATOM     26  C   UNL     1     -12.861   1.276   0.000  0.00  0.00    +0.000 A 
ATOM     27  C   UNL     1     -11.562   0.526   0.000  0.00  0.00    +0.004 A 
ENDBRANCH  21  22
ENDBRANCH  20  21
ENDBRANCH  19  20
TORSDOF 6