REMARK  Name = 20192
REMARK  22 active torsions:
REMARK  status: ('A' for Active; 'I' for Inactive)
REMARK    1  A    between atoms: C_1  and  C_2
REMARK    2  A    between atoms: C_1  and  C_18
REMARK    3  A    between atoms: C_2  and  C_3
REMARK    4  A    between atoms: C_3  and  C_4
REMARK    5  A    between atoms: C_4  and  C_5
REMARK    6  A    between atoms: C_5  and  C_6
REMARK    7  A    between atoms: C_6  and  C_7
REMARK    8  A    between atoms: C_7  and  C_8
REMARK    9  A    between atoms: C_8  and  C_9
REMARK   10  A    between atoms: C_9  and  C_10
REMARK   11  A    between atoms: C_10  and  C_11
REMARK   12  A    between atoms: C_11  and  C_12
REMARK   13  A    between atoms: C_13  and  C_14
REMARK   14  A    between atoms: C_13  and  O_15
REMARK   15  A    between atoms: O_15  and  C_16
REMARK   16  A    between atoms: C_16  and  C_18
REMARK   17  A    between atoms: C_18  and  C_19
REMARK   18  A    between atoms: C_18  and  N_24
REMARK   19  A    between atoms: C_19  and  O_21
REMARK   20  A    between atoms: O_21  and  C_22
REMARK   21  A    between atoms: C_22  and  C_23
REMARK   22  A    between atoms: C_25  and  C_27
REMARK                            x       y       z     vdW  Elec       q    Type
REMARK                         _______ _______ _______ _____ _____    ______ ____
ROOT
ATOM      2  C   UNL     1      -3.402   0.313   0.000  0.00  0.00    +0.229 C 
ENDROOT
BRANCH   2   3
ATOM      3  N   UNL     1      -4.108   1.636   0.000  0.00  0.00    -0.291 N 
ATOM      4  H   UNL     1      -5.092   1.669   0.000  0.00  0.00    +0.150 HD
ATOM      5  C   UNL     1      -3.316   2.910   0.000  0.00  0.00    +0.211 C 
ATOM      6  C   UNL     1      -1.816   2.860   0.000  0.00  0.00    +0.109 C 
ATOM      7  O   UNL     1      -4.022   4.233   0.000  0.00  0.00    -0.276 OA
ENDBRANCH   2   3
BRANCH   2   8
ATOM      8  C   UNL     1      -4.725  -0.393   0.000  0.00  0.00    +0.342 C 
ATOM     12  O   UNL     1      -4.775  -1.892   0.000  0.00  0.00    -0.248 OA
BRANCH   8   9
ATOM      9  O   UNL     1      -5.999   0.400   0.000  0.00  0.00    -0.463 OA
BRANCH   9  10
ATOM     10  C   UNL     1      -7.322  -0.307   0.000  0.00  0.00    +0.229 C 
ATOM     11  C   UNL     1      -7.372  -1.806   0.000  0.00  0.00    +0.048 C 
ENDBRANCH   9  10
ENDBRANCH   8   9
ENDBRANCH   2   8
BRANCH   2  13
ATOM     13  C   UNL     1      -2.696  -1.010   0.000  0.00  0.00    +0.342 C 
ATOM     14  O   UNL     1      -1.196  -1.060   0.000  0.00  0.00    -0.248 OA
BRANCH  13  15
ATOM     15  O   UNL     1      -3.488  -2.283   0.000  0.00  0.00    -0.463 OA
BRANCH  15  16
ATOM     16  C   UNL     1      -2.782  -3.607   0.000  0.00  0.00    +0.229 C 
ATOM     17  C   UNL     1      -3.575  -4.880   0.000  0.00  0.00    +0.048 C 
ENDBRANCH  15  16
ENDBRANCH  13  15
ENDBRANCH   2  13
BRANCH   2   1
ATOM      1  C   UNL     1      -2.079   1.020   0.000  0.00  0.00    +0.049 C 
BRANCH   1  18
ATOM     18  C   UNL     1      -0.805   0.227   0.000  0.00  0.00    +0.003 C 
BRANCH  18  19
ATOM     19  C   UNL     1       0.518   0.933   0.000  0.00  0.00    +0.000 C 
BRANCH  19  20
ATOM     20  C   UNL     1       1.791   0.140   0.000  0.00  0.00    +0.000 C 
BRANCH  20  21
ATOM     21  C   UNL     1       3.115   0.847   0.000  0.00  0.00    +0.000 C 
BRANCH  21  22
ATOM     22  C   UNL     1       4.388   0.054   0.000  0.00  0.00    -0.000 C 
BRANCH  22  23
ATOM     23  C   UNL     1       5.711   0.760   0.000  0.00  0.00    -0.000 C 
BRANCH  23  24
ATOM     24  C   UNL     1       6.984  -0.032   0.000  0.00  0.00    -0.000 C 
BRANCH  24  25
ATOM     25  C   UNL     1       8.308   0.674   0.000  0.00  0.00    -0.000 C 
BRANCH  25  26
ATOM     26  C   UNL     1       9.581  -0.119   0.000  0.00  0.00    -0.000 C 
BRANCH  26  27
ATOM     27  C   UNL     1      10.905   0.588   0.000  0.00  0.00    -0.003 C 
ATOM     28  C   UNL     1      12.178  -0.205   0.000  0.00  0.00    +0.004 C 
ENDBRANCH  26  27
ENDBRANCH  25  26
ENDBRANCH  24  25
ENDBRANCH  23  24
ENDBRANCH  22  23
ENDBRANCH  21  22
ENDBRANCH  20  21
ENDBRANCH  19  20
ENDBRANCH  18  19
ENDBRANCH   1  18
ENDBRANCH   2   1
TORSDOF 18