REMARK  Name = 106863
REMARK  5 active torsions:
REMARK  status: ('A' for Active; 'I' for Inactive)
REMARK    1  A    between atoms: N_1  and  C_10
REMARK    2  A    between atoms: N_2  and  C_5
REMARK    3  A    between atoms: C_12  and  C_16
REMARK    4  A    between atoms: C_13  and  O_15
REMARK    5  A    between atoms: C_16  and  O_18
REMARK                            x       y       z     vdW  Elec       q    Type
REMARK                         _______ _______ _______ _____ _____    ______ ____
ROOT
ATOM      9  C   UNL     1       0.750  -4.500   0.000  0.00  0.00    +0.100 A 
ATOM     10  C   UNL     1      -0.549  -5.250   0.000  0.00  0.00    +0.089 A 
ATOM     15  C   UNL     1      -1.848  -4.500   0.000  0.00  0.00    +0.062 A 
ATOM     16  C   UNL     1      -1.848  -3.000   0.000  0.00  0.00    +0.118 A 
ATOM     19  C   UNL     1      -0.549  -2.250   0.000  0.00  0.00    +0.047 A 
ATOM     20  C   UNL     1       0.750  -3.000   0.000  0.00  0.00    +0.034 A 
ENDROOT
BRANCH   9   1
ATOM      1  N   UNL     1       2.049  -5.250   0.000  0.00  0.00    -0.148 NA
ATOM      2  N   UNL     1       2.049  -6.750   0.000  0.00  0.00    -0.149 NA
BRANCH   2   3
ATOM      3  C   UNL     1       3.348  -7.500   0.000  0.00  0.00    +0.086 A 
ATOM      4  C   UNL     1       3.348  -9.000   0.000  0.00  0.00    +0.029 A 
ATOM      5  C   UNL     1       4.647  -9.750   0.000  0.00  0.00    +0.002 A 
ATOM      6  C   UNL     1       5.946  -9.000   0.000  0.00  0.00    +0.000 A 
ATOM      7  C   UNL     1       5.946  -7.500   0.000  0.00  0.00    +0.002 A 
ATOM      8  C   UNL     1       4.647  -6.750   0.000  0.00  0.00    +0.029 A 
ENDBRANCH   2   3
ENDBRANCH   9   1
BRANCH  10  11
ATOM     11  C   UNL     1      -0.549  -6.750   0.000  0.00  0.00    +0.339 C 
ATOM     14  O   UNL     1       0.750  -7.500   0.000  0.00  0.00    -0.245 OA
BRANCH  11  12
ATOM     12  O   UNL     1      -1.848  -7.500   0.000  0.00  0.00    -0.477 OA
ATOM     13  H   UNL     1      -2.660  -7.031   0.000  0.00  0.00    +0.295 HD
ENDBRANCH  11  12
ENDBRANCH  10  11
BRANCH  16  17
ATOM     17  O   UNL     1      -3.147  -2.250   0.000  0.00  0.00    -0.507 OA
ATOM     18  H   UNL     1      -3.147  -1.313   0.000  0.00  0.00    +0.292 HD
ENDBRANCH  16  17
TORSDOF 5