REMARK  Name = 163802
REMARK  5 active torsions:
REMARK  status: ('A' for Active; 'I' for Inactive)
REMARK    1  A    between atoms: O_1  and  C_4
REMARK    2  A    between atoms: O_1  and  C_15
REMARK    3  A    between atoms: C_5  and  N_17
REMARK    4  A    between atoms: C_9  and  C_15
REMARK    5  A    between atoms: C_12  and  N_14
REMARK                            x       y       z     vdW  Elec       q    Type
REMARK                         _______ _______ _______ _____ _____    ______ ____
ROOT
ATOM      2  C   UNL     1       4.172   6.274   0.000  0.00  0.00    +0.344 C 
ATOM      3  O   UNL     1       4.172   7.774   0.000  0.00  0.00    -0.245 OA
ENDROOT
BRANCH   2   4
ATOM      4  C   UNL     1       2.873   5.524   0.000  0.00  0.00    +0.060 A 
ATOM      5  C   UNL     1       2.873   4.024   0.000  0.00  0.00    +0.017 A 
ATOM      6  C   UNL     1       1.573   3.275   0.000  0.00  0.00    +0.023 A 
ATOM      7  C   UNL     1       0.275   4.024   0.000  0.00  0.00    +0.025 A 
ATOM     11  C   UNL     1       0.275   5.524   0.000  0.00  0.00    +0.023 A 
ATOM     12  C   UNL     1       1.573   6.274   0.000  0.00  0.00    +0.017 A 
BRANCH   7   8
ATOM      8  N   UNL     1      -1.025   3.275   0.000  0.00  0.00    -0.358 N 
ATOM      9  H   UNL     1      -1.024   2.290   0.000  0.00  0.00    +0.142 HD
ATOM     10  H   UNL     1      -1.877   3.767   0.000  0.00  0.00    +0.142 HD
ENDBRANCH   7   8
ENDBRANCH   2   4
BRANCH   2   1
ATOM      1  O   UNL     1       5.471   5.524   0.000  0.00  0.00    -0.422 OA
BRANCH   1  13
ATOM     13  C   UNL     1       6.770   6.275   0.000  0.00  0.00    +0.132 A 
ATOM     14  C   UNL     1       8.069   5.525   0.000  0.00  0.00    +0.053 A 
ATOM     15  C   UNL     1       9.368   6.275   0.000  0.00  0.00    +0.088 A 
ATOM     16  C   UNL     1       9.368   7.775   0.000  0.00  0.00    +0.273 A 
ATOM     20  C   UNL     1       8.069   8.525   0.000  0.00  0.00    +0.088 A 
ATOM     21  C   UNL     1       6.770   7.775   0.000  0.00  0.00    +0.053 A 
BRANCH  16  17
ATOM     17  N   UNL     1      10.667   8.525   0.000  0.00  0.00    +0.080 N 
ATOM     18  O   UNL     1      11.966   7.775   0.000  0.00  0.00    +0.041 OA
ATOM     19  O   UNL     1      10.667  10.025   0.000  0.00  0.00    -0.576 OA
ENDBRANCH  16  17
ENDBRANCH   1  13
ENDBRANCH   2   1
TORSDOF 5