REMARK  Name = 11667
REMARK  3 active torsions:
REMARK  status: ('A' for Active; 'I' for Inactive)
REMARK    1  A    between atoms: N_5  and  C_26
REMARK    2  A    between atoms: C_8  and  N_24
REMARK    3  A    between atoms: C_18  and  N_25
REMARK                            x       y       z     vdW  Elec       q    Type
REMARK                         _______ _______ _______ _____ _____    ______ ____
ROOT
ATOM      6  N   UNL     1       2.324   5.524   0.000  0.00  0.00    -0.284 N 
ATOM      7  H   UNL     1       3.176   5.032   0.000  0.00  0.00    +0.155 HD
ATOM      8  C   UNL     1       2.324   7.024   0.000  0.00  0.00    +0.223 A 
ATOM      9  N   UNL     1       1.025   7.774   0.000  0.00  0.00    -0.195 NA
ATOM     10  C   UNL     1       1.025   9.274   0.000  0.00  0.00    +0.165 A 
ATOM     11  C   UNL     1       2.324  10.025   0.000  0.00  0.00    +0.079 A 
ATOM     12  C   UNL     1       2.012  11.492   0.000  0.00  0.00    +0.148 A 
ATOM     13  N   UNL     1       0.520  11.649   0.000  0.00  0.00    -0.177 NA
ATOM     14  C   UNL     1       3.623   9.274   0.000  0.00  0.00    +0.139 A 
ATOM     15  N   UNL     1       4.922  10.025   0.000  0.00  0.00    -0.299 N 
ATOM     16  H   UNL     1       5.774   9.532   0.000  0.00  0.00    +0.154 HD
ATOM     24  N   UNL     1      -0.090  10.278   0.000  0.00  0.00    -0.249 N 
ATOM     25  C   UNL     1      -1.557   9.966   0.000  0.00  0.00    +0.174 C 
ATOM     26  N   UNL     1       3.623   7.774   0.000  0.00  0.00    -0.198 NA
ENDROOT
BRANCH   6   5
ATOM      1 BR   UNL     1      -2.873   2.525   0.000  0.00  0.00    -0.050 Br
ATOM      2  C   UNL     1      -1.574   3.275   0.000  0.00  0.00    +0.018 A 
ATOM      3  C   UNL     1      -0.275   2.525   0.000  0.00  0.00    +0.017 A 
ATOM      4  C   UNL     1       1.025   3.275   0.000  0.00  0.00    +0.024 A 
ATOM      5  C   UNL     1       1.025   4.774   0.000  0.00  0.00    +0.034 A 
ATOM     27  C   UNL     1      -0.275   5.524   0.000  0.00  0.00    +0.024 A 
ATOM     28  C   UNL     1      -1.574   4.774   0.000  0.00  0.00    +0.017 A 
ENDBRANCH   6   5
BRANCH  15  17
ATOM     17  C   UNL     1       4.922  11.525   0.000  0.00  0.00    +0.032 A 
ATOM     18  C   UNL     1       6.221  12.275   0.000  0.00  0.00    +0.024 A 
ATOM     19  C   UNL     1       6.221  13.775   0.000  0.00  0.00    +0.017 A 
ATOM     20  C   UNL     1       4.922  14.525   0.000  0.00  0.00    +0.018 A 
ATOM     21  C   UNL     1       3.623  13.775   0.000  0.00  0.00    +0.017 A 
ATOM     22 BR   UNL     1       4.922  16.025   0.000  0.00  0.00    -0.050 Br
ATOM     23  C   UNL     1       3.623  12.275   0.000  0.00  0.00    +0.024 A 
ENDBRANCH  15  17
TORSDOF 2