REMARK  Name = 121182
REMARK  5 active torsions:
REMARK  status: ('A' for Active; 'I' for Inactive)
REMARK    1  A    between atoms: N_4  and  C_14
REMARK    2  A    between atoms: C_11  and  C_18
REMARK    3  A    between atoms: C_12  and  O_17
REMARK    4  A    between atoms: C_13  and  N_16
REMARK    5  A    between atoms: C_18  and  O_19
REMARK                            x       y       z     vdW  Elec       q    Type
REMARK                         _______ _______ _______ _____ _____    ______ ____
ROOT
ATOM      9  C   UNL     1       6.812  -4.415   0.000  0.00  0.00    +0.241 C 
ATOM     10  C   UNL     1       5.930  -5.628   0.000  0.00  0.00    +0.133 C 
ATOM     14  C   UNL     1       6.812  -6.842   0.000  0.00  0.00    +0.166 C 
ATOM     17  C   UNL     1       8.238  -6.378   0.000  0.00  0.00    +0.176 C 
ATOM     21  O   UNL     1       8.238  -4.878   0.000  0.00  0.00    -0.347 OA
ENDROOT
BRANCH   9   8
ATOM      1  N   UNL     1       2.324  -1.025   0.000  0.00  0.00    -0.219 NA
ATOM      2  C   UNL     1       2.324  -2.525   0.000  0.00  0.00    +0.225 A 
ATOM      3  N   UNL     1       3.623  -3.275   0.000  0.00  0.00    -0.216 NA
ATOM      4  C   UNL     1       4.922  -2.525   0.000  0.00  0.00    +0.167 A 
ATOM      5  C   UNL     1       4.922  -1.025   0.000  0.00  0.00    +0.147 A 
ATOM      6  N   UNL     1       6.348  -0.561   0.000  0.00  0.00    -0.231 NA
ATOM      7  C   UNL     1       7.230  -1.775   0.000  0.00  0.00    +0.203 A 
ATOM      8  N   UNL     1       6.348  -2.988   0.000  0.00  0.00    -0.286 N 
ATOM     22  C   UNL     1       3.623  -0.275   0.000  0.00  0.00    +0.147 A 
ATOM     23  N   UNL     1       3.623   1.226   0.000  0.00  0.00    -0.341 N 
ATOM     24  H   UNL     1       2.770   1.718   0.000  0.00  0.00    +0.144 HD
ATOM     25  H   UNL     1       4.475   1.718   0.000  0.00  0.00    +0.144 HD
ENDBRANCH   9   8
BRANCH  10  11
ATOM     11  N   UNL     1       4.430  -5.628   0.000  0.00  0.00    -0.322 NA
ATOM     12  H   UNL     1       3.920  -6.512   0.000  0.00  0.00    +0.119 HD
ATOM     13  H   UNL     1       3.920  -4.745   0.000  0.00  0.00    +0.119 HD
ENDBRANCH  10  11
BRANCH  14  15
ATOM     15  O   UNL     1       6.348  -8.268   0.000  0.00  0.00    -0.387 OA
ATOM     16  H   UNL     1       5.399  -8.470   0.000  0.00  0.00    +0.210 HD
ENDBRANCH  14  15
BRANCH  17  18
ATOM     18  C   UNL     1       9.452  -7.260   0.000  0.00  0.00    +0.190 C 
BRANCH  18  19
ATOM     19  O   UNL     1       9.295  -8.752   0.000  0.00  0.00    -0.392 OA
ATOM     20  H   UNL     1       8.409  -9.146   0.000  0.00  0.00    +0.210 HD
ENDBRANCH  18  19
ENDBRANCH  17  18
TORSDOF 5