REMARK  Name = 204665
REMARK  11 active torsions:
REMARK  status: ('A' for Active; 'I' for Inactive)
REMARK    1  A    between atoms: O_2  and  C_11
REMARK    2  A    between atoms: O_2  and  C_19
REMARK    3  A    between atoms: C_5  and  N_21
REMARK    4  A    between atoms: C_6  and  C_22
REMARK    5  A    between atoms: C_10  and  C_15
REMARK    6  A    between atoms: C_12  and  C_16
REMARK    7  A    between atoms: C_16  and  C_17
REMARK    8  A    between atoms: C_16  and  C_18
REMARK    9  A    between atoms: C_22  and  O_24
REMARK   10  A    between atoms: O_24  and  C_25
REMARK   11  A    between atoms: C_25  and  C_26
REMARK                            x       y       z     vdW  Elec       q    Type
REMARK                         _______ _______ _______ _____ _____    ______ ____
ROOT
ATOM     11  C   UNL     1       6.870  -4.399   0.000  0.00  0.00    +0.410 C 
ATOM     12  N   UNL     1       6.870  -5.899   0.000  0.00  0.00    -0.251 N 
ATOM     13  H   UNL     1       6.018  -6.392   0.000  0.00  0.00    +0.158 HD
ATOM     25  O   UNL     1       8.169  -3.650   0.000  0.00  0.00    -0.226 OA
ENDROOT
BRANCH  12  14
ATOM     14  C   UNL     1       8.169  -6.649   0.000  0.00  0.00    +0.036 A 
ATOM     15  C   UNL     1       8.169  -8.149   0.000  0.00  0.00    +0.024 A 
ATOM     16  C   UNL     1       9.468  -8.899   0.000  0.00  0.00    +0.017 A 
ATOM     17  C   UNL     1      10.767  -8.149   0.000  0.00  0.00    +0.059 A 
ATOM     23  C   UNL     1      10.767  -6.649   0.000  0.00  0.00    +0.017 A 
ATOM     24  C   UNL     1       9.468  -5.899   0.000  0.00  0.00    +0.024 A 
BRANCH  17  18
ATOM     18  C   UNL     1      12.066  -8.899   0.000  0.00  0.00    +0.339 C 
ATOM     22  O   UNL     1      13.365  -8.149   0.000  0.00  0.00    -0.245 OA
BRANCH  18  19
ATOM     19  O   UNL     1      12.066 -10.400   0.000  0.00  0.00    -0.461 OA
BRANCH  19  20
ATOM     20  C   UNL     1      13.365 -11.150   0.000  0.00  0.00    +0.229 C 
ATOM     21  C   UNL     1      13.365 -12.650   0.000  0.00  0.00    +0.048 C 
ENDBRANCH  19  20
ENDBRANCH  18  19
ENDBRANCH  17  18
ENDBRANCH  12  14
BRANCH  11  10
ATOM     10  O   UNL     1       5.571  -3.650   0.000  0.00  0.00    -0.411 OA
BRANCH  10   8
ATOM      1 CL   UNL     1       5.571   2.350   0.000  0.00  0.00    -0.083 Cl
ATOM      2  C   UNL     1       5.571   0.851   0.000  0.00  0.00    +0.044 A 
ATOM      3  C   UNL     1       4.272   0.101   0.000  0.00  0.00    +0.027 A 
ATOM      4  C   UNL     1       4.272  -1.400   0.000  0.00  0.00    -0.001 A 
ATOM      8  C   UNL     1       5.571  -2.150   0.000  0.00  0.00    +0.137 A 
ATOM      9  C   UNL     1       6.870  -1.400   0.000  0.00  0.00    +0.051 A 
ATOM     26  C   UNL     1       6.870   0.101   0.000  0.00  0.00    -0.029 A 
ATOM     27  C   UNL     1       8.169   0.851   0.000  0.00  0.00    +0.045 C 
BRANCH   4   5
ATOM      5  C   UNL     1       2.973  -2.150   0.000  0.00  0.00    +0.016 C 
ATOM      6  C   UNL     1       1.674  -1.400   0.000  0.00  0.00    +0.012 C 
ATOM      7  C   UNL     1       2.973  -3.650   0.000  0.00  0.00    +0.012 C 
ENDBRANCH   4   5
ENDBRANCH  10   8
ENDBRANCH  11  10
TORSDOF 7