REMARK  Name = 159092
REMARK  4 active torsions:
REMARK  status: ('A' for Active; 'I' for Inactive)
REMARK    1  A    between atoms: N_2  and  C_9
REMARK    2  A    between atoms: C_5  and  S_7
REMARK    3  A    between atoms: S_7  and  C_15
REMARK    4  A    between atoms: C_20  and  N_22
REMARK                            x       y       z     vdW  Elec       q    Type
REMARK                         _______ _______ _______ _____ _____    ______ ____
ROOT
ATOM      1  C   UNL     1       7.254   2.484   0.000  0.00  0.00    +0.240 C 
ATOM      2  O   UNL     1       7.254   3.984   0.000  0.00  0.00    -0.274 OA
ATOM      3  C   UNL     1       8.468   1.602   0.000  0.00  0.00    +0.147 C 
ATOM     14  C   UNL     1       8.004   0.175   0.000  0.00  0.00    +0.120 C 
ATOM     15  C   UNL     1       6.504   0.175   0.000  0.00  0.00    +0.228 C 
ATOM     16  O   UNL     1       5.622  -1.038   0.000  0.00  0.00    -0.275 OA
ATOM     17  N   UNL     1       6.041   1.602   0.000  0.00  0.00    -0.208 N 
ENDROOT
BRANCH  17  18
ATOM     18  C   UNL     1       4.614   2.065   0.000  0.00  0.00    +0.062 A 
ATOM     19  C   UNL     1       3.499   1.062   0.000  0.00  0.00    +0.063 A 
ATOM     20 CL   UNL     1       3.811  -0.406   0.000  0.00  0.00    -0.082 Cl
ATOM     21  C   UNL     1       2.073   1.525   0.000  0.00  0.00    +0.022 A 
ATOM     22  C   UNL     1       1.761   2.992   0.000  0.00  0.00    +0.002 A 
ATOM     23  C   UNL     1       2.876   3.996   0.000  0.00  0.00    +0.002 A 
ATOM     24  C   UNL     1       4.302   3.533   0.000  0.00  0.00    +0.025 A 
ENDBRANCH  17  18
BRANCH   3   4
ATOM      4  S   UNL     1       9.894   2.065   0.000  0.00  0.00    -0.110 S 
BRANCH   4   5
ATOM      5  C   UNL     1      11.009   1.062   0.000  0.00  0.00    +0.029 A 
ATOM      6  C   UNL     1      12.436   1.525   0.000  0.00  0.00    +0.038 A 
ATOM     10  C   UNL     1      13.550   0.522   0.000  0.00  0.00    +0.024 A 
ATOM     11  C   UNL     1      13.238  -0.946   0.000  0.00  0.00    +0.002 A 
ATOM     12  C   UNL     1      11.812  -1.409   0.000  0.00  0.00    +0.001 A 
ATOM     13  C   UNL     1      10.697  -0.406   0.000  0.00  0.00    +0.016 A 
BRANCH   6   7
ATOM      7  N   UNL     1      12.747   2.993   0.000  0.00  0.00    -0.357 N 
ATOM      8  H   UNL     1      12.016   3.651   0.000  0.00  0.00    +0.142 HD
ATOM      9  H   UNL     1      13.684   3.297   0.000  0.00  0.00    +0.142 HD
ENDBRANCH   6   7
ENDBRANCH   4   5
ENDBRANCH   3   4
TORSDOF 4