REMARK  Name = 106208
REMARK  3 active torsions:
REMARK  status: ('A' for Active; 'I' for Inactive)
REMARK    1  A    between atoms: N_2  and  C_6
REMARK    2  A    between atoms: N_3  and  C_12
REMARK    3  A    between atoms: C_9  and  N_16
REMARK                            x       y       z     vdW  Elec       q    Type
REMARK                         _______ _______ _______ _____ _____    ______ ____
ROOT
ATOM      1  N   UNL     1      -0.126   6.170   0.000  0.00  0.00    -0.216 NA
ATOM      2  C   UNL     1      -1.600   6.450   0.000  0.00  0.00    +0.118 A 
ATOM      6  C   UNL     1      -2.580   5.315   0.000  0.00  0.00    +0.045 A 
ATOM      7  C   UNL     1      -2.086   3.898   0.000  0.00  0.00    +0.036 A 
ATOM      8  C   UNL     1      -0.613   3.617   0.000  0.00  0.00    +0.126 A 
ATOM     18  C   UNL     1       0.367   4.753   0.000  0.00  0.00    +0.146 A 
ATOM     19  N   UNL     1       1.841   4.472   0.000  0.00  0.00    -0.341 N 
ATOM     20  H   UNL     1       2.484   5.217   0.000  0.00  0.00    +0.144 HD
ATOM     21  H   UNL     1       2.164   3.542   0.000  0.00  0.00    +0.144 HD
ENDROOT
BRANCH   2   3
ATOM      3  N   UNL     1      -2.093   7.867   0.000  0.00  0.00    -0.343 N 
ATOM      4  H   UNL     1      -3.060   8.051   0.000  0.00  0.00    +0.144 HD
ATOM      5  H   UNL     1      -1.450   8.612   0.000  0.00  0.00    +0.144 HD
ENDBRANCH   2   3
BRANCH   8   9
ATOM      9  N   UNL     1      -0.119   2.201   0.000  0.00  0.00    -0.146 NA
ATOM     10  N   UNL     1       1.354   1.920   0.000  0.00  0.00    -0.148 NA
BRANCH  10  11
ATOM     11  C   UNL     1       1.848   0.503   0.000  0.00  0.00    +0.104 A 
ATOM     12  C   UNL     1       3.321   0.223   0.000  0.00  0.00    +0.068 A 
ATOM     13  C   UNL     1       3.814  -1.194   0.000  0.00  0.00    +0.022 A 
ATOM     14  C   UNL     1       2.834  -2.330   0.000  0.00  0.00    +0.002 A 
ATOM     15  C   UNL     1       1.361  -2.049   0.000  0.00  0.00    +0.002 A 
ATOM     16 CL   UNL     1       4.301   1.358   0.000  0.00  0.00    -0.081 Cl
ATOM     17  C   UNL     1       0.868  -0.632   0.000  0.00  0.00    +0.031 A 
ENDBRANCH  10  11
ENDBRANCH   8   9
TORSDOF 3