REMARK  Name = 109719
REMARK  0 active torsions:
REMARK  status: ('A' for Active; 'I' for Inactive)
REMARK                            x       y       z     vdW  Elec       q    Type
REMARK                         _______ _______ _______ _____ _____    ______ ____
ROOT
ATOM      1  N   UNL     1       3.184   6.992   0.000  0.00  0.00    -0.128 NA
ATOM      2  C   UNL     1       2.873   5.524   0.000  0.00  0.00    +0.170 A 
ATOM      3  C   UNL     1       1.573   4.774   0.000  0.00  0.00    +0.027 A 
ATOM      4  C   UNL     1       0.275   5.524   0.000  0.00  0.00    +0.012 A 
ATOM      5  C   UNL     1      -1.025   4.774   0.000  0.00  0.00    +0.001 A 
ATOM      6  C   UNL     1      -1.025   3.275   0.000  0.00  0.00    +0.001 A 
ATOM      7  C   UNL     1       0.275   2.525   0.000  0.00  0.00    +0.008 A 
ATOM      8  C   UNL     1       1.573   3.275   0.000  0.00  0.00    -0.013 A 
ATOM      9  C   UNL     1       2.873   2.525   0.000  0.00  0.00    +0.027 A 
ATOM     10  C   UNL     1       4.172   3.275   0.000  0.00  0.00    +0.096 A 
ATOM     11  N   UNL     1       4.172   4.774   0.000  0.00  0.00    -0.273 N 
ATOM     12  C   UNL     1       5.286   5.778   0.000  0.00  0.00    +0.229 A 
ATOM     13 CL   UNL     1       6.754   5.466   0.000  0.00  0.00    -0.041 Cl
ATOM     14  N   UNL     1       4.676   7.149   0.000  0.00  0.00    -0.116 NA
ENDROOT
TORSDOF 0