REMARK  Name = 127216
REMARK  3 active torsions:
REMARK  status: ('A' for Active; 'I' for Inactive)
REMARK    1  A    between atoms: C_5  and  S_7
REMARK    2  A    between atoms: S_7  and  C_8
REMARK    3  A    between atoms: N_9  and  N_10
REMARK                            x       y       z     vdW  Elec       q    Type
REMARK                         _______ _______ _______ _____ _____    ______ ____
ROOT
ATOM      1  H   UNL     1      -1.520  -2.128   0.000  0.00  0.00    +0.176 HD
ATOM      2  N   UNL     1      -0.610  -0.936   0.000  0.00  0.00    -0.302 N 
ATOM      3  C   UNL     1      -1.039   0.502   0.000  0.00  0.00    +0.175 A 
ATOM      6  N   UNL     1       0.196   1.354   0.000  0.00  0.00    -0.195 NA
ATOM      7  C   UNL     1       1.388   0.443   0.000  0.00  0.00    +0.227 A 
ATOM      8  N   UNL     1       2.825   0.872   0.000  0.00  0.00    -0.161 NA
ATOM     12  S   UNL     1       0.890  -0.972   0.000  0.00  0.00    +0.030 S 
ENDROOT
BRANCH   8   9
ATOM      9  N   UNL     1       3.915  -0.158   0.000  0.00  0.00    -0.280 N 
ATOM     10  H   UNL     1       4.859   0.123   0.000  0.00  0.00    +0.164 HD
ATOM     11  H   UNL     1       3.687  -1.116   0.000  0.00  0.00    +0.164 HD
ENDBRANCH   8   9
BRANCH   3   4
ATOM      4  S   UNL     1      -2.454   0.999   0.000  0.00  0.00    -0.091 S 
ATOM      5  C   UNL     1      -3.592   0.023   0.000  0.00  0.00    +0.093 C 
ENDBRANCH   3   4
TORSDOF 2