REMARK  Name = 142269
REMARK  4 active torsions:
REMARK  status: ('A' for Active; 'I' for Inactive)
REMARK    1  A    between atoms: C_4  and  N_15
REMARK    2  A    between atoms: C_6  and  S_13
REMARK    3  A    between atoms: C_10  and  C_19
REMARK    4  A    between atoms: S_13  and  C_14
REMARK                            x       y       z     vdW  Elec       q    Type
REMARK                         _______ _______ _______ _____ _____    ______ ____
ROOT
ATOM      1  N   UNL     1       7.520  -7.024   0.000  0.00  0.00    -0.240 NA
ATOM      2  C   UNL     1       8.819  -7.774   0.000  0.00  0.00    +0.113 A 
ATOM      3  C   UNL     1       8.819  -9.274   0.000  0.00  0.00    +0.023 A 
ATOM      4  C   UNL     1       7.520 -10.025   0.000  0.00  0.00    -0.046 A 
ATOM      5  C   UNL     1       7.520 -11.525   0.000  0.00  0.00    +0.044 C 
ATOM      6  C   UNL     1       6.221  -9.274   0.000  0.00  0.00    +0.047 A 
ATOM      7  C   UNL     1       6.221  -7.774   0.000  0.00  0.00    +0.126 A 
ATOM      8  N   UNL     1       4.922  -7.024   0.000  0.00  0.00    -0.254 N 
ATOM      9  H   UNL     1       4.069  -7.517   0.000  0.00  0.00    +0.158 HD
ATOM     10  C   UNL     1       4.922  -5.524   0.000  0.00  0.00    +0.309 C 
ATOM     11  O   UNL     1       6.221  -4.774   0.000  0.00  0.00    -0.252 OA
ATOM     12  N   UNL     1       3.623  -4.774   0.000  0.00  0.00    -0.269 N 
ATOM     13  H   UNL     1       2.770  -5.267   0.000  0.00  0.00    +0.156 HD
ENDROOT
BRANCH  12  14
ATOM     14  C   UNL     1       3.623  -3.275   0.000  0.00  0.00    +0.035 A 
ATOM     15  C   UNL     1       2.324  -2.525   0.000  0.00  0.00    +0.024 A 
ATOM     16  C   UNL     1       2.324  -1.025   0.000  0.00  0.00    +0.016 A 
ATOM     17  C   UNL     1       3.623  -0.275   0.000  0.00  0.00    +0.008 A 
ATOM     20  C   UNL     1       4.922  -1.025   0.000  0.00  0.00    +0.016 A 
ATOM     21  C   UNL     1       4.922  -2.525   0.000  0.00  0.00    +0.024 A 
BRANCH  17  18
ATOM     18  S   UNL     1       3.623   1.226   0.000  0.00  0.00    -0.129 S 
ATOM     19  C   UNL     1       4.922   1.976   0.000  0.00  0.00    +0.090 C 
ENDBRANCH  17  18
ENDBRANCH  12  14
TORSDOF 2