REMARK  Name = 164459
REMARK  5 active torsions:
REMARK  status: ('A' for Active; 'I' for Inactive)
REMARK    1  A    between atoms: O_1  and  C_5
REMARK    2  A    between atoms: O_1  and  C_21
REMARK    3  A    between atoms: C_11  and  N_17
REMARK    4  A    between atoms: C_12  and  C_15
REMARK    5  A    between atoms: C_19  and  C_21
REMARK                            x       y       z     vdW  Elec       q    Type
REMARK                         _______ _______ _______ _____ _____    ______ ____
ROOT
ATOM      3  C   UNL     1       2.049  -6.750   0.000  0.00  0.00    +0.255 C 
ATOM      4  O   UNL     1       3.348  -7.500   0.000  0.00  0.00    -0.272 OA
ATOM      5  N   UNL     1       2.049  -5.250   0.000  0.00  0.00    -0.282 N 
ATOM      6  H   UNL     1       1.196  -4.758   0.000  0.00  0.00    +0.155 HD
ENDROOT
BRANCH   5   7
ATOM      7  C   UNL     1       3.348  -4.500   0.000  0.00  0.00    +0.046 A 
ATOM      8  C   UNL     1       3.348  -3.000   0.000  0.00  0.00    +0.058 A 
ATOM     14  C   UNL     1       4.647  -2.250   0.000  0.00  0.00    +0.015 A 
ATOM     15  C   UNL     1       5.946  -3.000   0.000  0.00  0.00    +0.001 A 
ATOM     16  C   UNL     1       5.946  -4.500   0.000  0.00  0.00    +0.002 A 
ATOM     17  C   UNL     1       4.647  -5.250   0.000  0.00  0.00    +0.024 A 
BRANCH   8   9
ATOM      9  C   UNL     1       2.049  -2.250   0.000  0.00  0.00    +0.243 C 
ATOM     10  N   UNL     1       2.049  -0.750   0.000  0.00  0.00    -0.325 N 
ATOM     11  H   UNL     1       1.196  -0.258   0.000  0.00  0.00    +0.145 HD
ATOM     12  H   UNL     1       2.902  -0.258   0.000  0.00  0.00    +0.145 HD
ATOM     13  O   UNL     1       0.750  -3.000   0.000  0.00  0.00    -0.270 OA
ENDBRANCH   8   9
ENDBRANCH   5   7
BRANCH   3   2
ATOM      2  C   UNL     1       0.750  -7.500   0.000  0.00  0.00    +0.324 C 
BRANCH   2   1
ATOM      1  O   UNL     1       0.750  -9.000   0.000  0.00  0.00    -0.483 OA
BRANCH   1  18
ATOM     18  C   UNL     1       2.049  -9.750   0.000  0.00  0.00    +0.121 A 
ATOM     19  C   UNL     1       2.049 -11.250   0.000  0.00  0.00    +0.047 A 
ATOM     20  C   UNL     1       3.348 -12.000   0.000  0.00  0.00    +0.023 A 
ATOM     21  C   UNL     1       4.647 -11.250   0.000  0.00  0.00    +0.041 A 
ATOM     22  C   UNL     1       4.647  -9.750   0.000  0.00  0.00    +0.023 A 
ATOM     23 CL   UNL     1       5.946 -12.000   0.000  0.00  0.00    -0.084 Cl
ATOM     24  C   UNL     1       3.348  -9.000   0.000  0.00  0.00    +0.047 A 
ENDBRANCH   1  18
ENDBRANCH   2   1
ENDBRANCH   3   2
TORSDOF 5