REMARK  Name = 12544
REMARK  3 active torsions:
REMARK  status: ('A' for Active; 'I' for Inactive)
REMARK    1  A    between atoms: O_2  and  C_9
REMARK    2  A    between atoms: O_2  and  S_19
REMARK    3  A    between atoms: C_10  and  S_19
REMARK                            x       y       z     vdW  Elec       q    Type
REMARK                         _______ _______ _______ _____ _____    ______ ____
ROOT
ATOM      8  S   UNL     1      -7.520   1.025   0.000  0.00  0.00    +0.153 S 
ATOM      9  O   UNL     1      -6.770   2.324   0.000  0.00  0.00    -0.131 OA
ATOM     10  O   UNL     1      -8.270  -0.275   0.000  0.00  0.00    -0.131 OA
ENDROOT
BRANCH   8  11
ATOM     11  C   UNL     1      -6.221   0.275   0.000  0.00  0.00    +0.154 A 
ATOM     12  C   UNL     1      -4.922   1.025   0.000  0.00  0.00    +0.099 A 
ATOM     13  C   UNL     1      -3.623   0.275   0.000  0.00  0.00    +0.002 A 
ATOM     14  C   UNL     1      -3.623  -1.226   0.000  0.00  0.00    +0.010 A 
ATOM     15  C   UNL     1      -4.922  -1.976   0.000  0.00  0.00    +0.003 A 
ATOM     16  C   UNL     1      -2.324   1.025   0.000  0.00  0.00    +0.011 A 
ATOM     17  C   UNL     1      -2.324   2.525   0.000  0.00  0.00    +0.020 A 
ATOM     18  C   UNL     1      -3.623   3.275   0.000  0.00  0.00    +0.111 A 
ATOM     19  N   UNL     1      -4.922   2.525   0.000  0.00  0.00    -0.253 NA
ATOM     20  C   UNL     1      -6.221  -1.226   0.000  0.00  0.00    +0.033 A 
ENDBRANCH   8  11
BRANCH   8   7
ATOM      7  O   UNL     1      -8.819   1.775   0.000  0.00  0.00    -0.342 OA
BRANCH   7   5
ATOM      1 CL   UNL     1      -8.819   7.774   0.000  0.00  0.00    -0.084 Cl
ATOM      2  C   UNL     1      -8.819   6.274   0.000  0.00  0.00    +0.041 A 
ATOM      3  C   UNL     1     -10.118   5.524   0.000  0.00  0.00    +0.023 A 
ATOM      4  C   UNL     1     -10.118   4.024   0.000  0.00  0.00    +0.050 A 
ATOM      5  C   UNL     1      -8.819   3.275   0.000  0.00  0.00    +0.157 A 
ATOM      6  C   UNL     1      -7.520   4.024   0.000  0.00  0.00    +0.050 A 
ATOM     21  C   UNL     1      -7.520   5.524   0.000  0.00  0.00    +0.023 A 
ENDBRANCH   7   5
ENDBRANCH   8   7
TORSDOF 3