REMARK  Name = 16873
REMARK  2 active torsions:
REMARK  status: ('A' for Active; 'I' for Inactive)
REMARK    1  A    between atoms: C_9  and  C_13
REMARK    2  A    between atoms: C_10  and  O_14
REMARK                            x       y       z     vdW  Elec       q    Type
REMARK                         _______ _______ _______ _____ _____    ______ ____
ROOT
ATOM      6  C   UNL     1      -4.647  -2.827   0.000  0.00  0.00    -0.024 A 
ATOM      7  C   UNL     1      -4.647  -4.327   0.000  0.00  0.00    +0.011 A 
ATOM      8  C   UNL     1      -3.348  -5.077   0.000  0.00  0.00    +0.046 A 
ATOM      9  C   UNL     1      -2.049  -4.327   0.000  0.00  0.00    +0.117 A 
ATOM     12  C   UNL     1      -2.049  -2.827   0.000  0.00  0.00    +0.046 A 
ATOM     13  C   UNL     1      -3.348  -2.077   0.000  0.00  0.00    +0.011 A 
ENDROOT
BRANCH   6   5
ATOM      1  O   UNL     1      -9.619  -3.332   0.000  0.00  0.00    -0.461 OA
ATOM      2  C   UNL     1      -8.869  -4.631   0.000  0.00  0.00    +0.237 C 
ATOM      3  C   UNL     1      -7.402  -4.319   0.000  0.00  0.00    +0.083 C 
ATOM      4  C   UNL     1      -7.245  -2.827   0.000  0.00  0.00    +0.040 C 
ATOM      5  C   UNL     1      -5.946  -2.077   0.000  0.00  0.00    +0.018 C 
ATOM     14  C   UNL     1      -8.616  -2.217   0.000  0.00  0.00    +0.335 C 
ATOM     15  O   UNL     1      -8.927  -0.750   0.000  0.00  0.00    -0.245 OA
ENDBRANCH   6   5
BRANCH   9  10
ATOM     10  O   UNL     1      -0.750  -5.077   0.000  0.00  0.00    -0.507 OA
ATOM     11  H   UNL     1      -0.750  -6.014   0.000  0.00  0.00    +0.292 HD
ENDBRANCH   9  10
TORSDOF 2