REMARK  Name = 163639
REMARK  8 active torsions:
REMARK  status: ('A' for Active; 'I' for Inactive)
REMARK    1  A    between atoms: N_8  and  O_18
REMARK    2  A    between atoms: C_15  and  C_16
REMARK    3  A    between atoms: C_15  and  C_19
REMARK    4  A    between atoms: C_16  and  O_20
REMARK    5  A    between atoms: C_19  and  C_22
REMARK    6  A    between atoms: O_20  and  C_21
REMARK    7  A    between atoms: C_22  and  O_24
REMARK    8  A    between atoms: O_24  and  C_25
REMARK                            x       y       z     vdW  Elec       q    Type
REMARK                         _______ _______ _______ _____ _____    ______ ____
ROOT
ATOM      1 CL   UNL     1     -11.226  -1.899   0.000  0.00  0.00    -0.082 Cl
ATOM      2  C   UNL     1      -9.927  -2.649   0.000  0.00  0.00    +0.061 A 
ATOM      3  C   UNL     1      -9.927  -4.149   0.000  0.00  0.00    +0.061 A 
ATOM      4  C   UNL     1      -8.628  -4.899   0.000  0.00  0.00    +0.046 A 
ATOM      5  C   UNL     1      -7.329  -4.149   0.000  0.00  0.00    +0.057 A 
ATOM      6  C   UNL     1      -7.329  -2.649   0.000  0.00  0.00    +0.130 A 
ATOM      7  S   UNL     1      -6.029  -1.899   0.000  0.00  0.00    +0.087 S 
ATOM      8  N   UNL     1      -4.731  -2.649   0.000  0.00  0.00    -0.021 NA
ATOM     11  C   UNL     1      -4.731  -4.149   0.000  0.00  0.00    +0.239 C 
ATOM     21  O   UNL     1      -5.065  -0.750   0.000  0.00  0.00    -0.151 OA
ATOM     22  O   UNL     1      -6.994  -0.750   0.000  0.00  0.00    -0.151 OA
ATOM     23  N   UNL     1      -6.029  -4.899   0.000  0.00  0.00    -0.312 N 
ATOM     24  H   UNL     1      -6.029  -6.399   0.000  0.00  0.00    +0.149 HD
ATOM     25 CL   UNL     1     -11.226  -4.899   0.000  0.00  0.00    -0.082 Cl
ATOM     26  C   UNL     1      -8.628  -1.899   0.000  0.00  0.00    +0.052 A 
ENDROOT
BRANCH   8   9
ATOM      9  O   UNL     1      -3.431  -1.899   0.000  0.00  0.00    -0.290 OA
ATOM     10  H   UNL     1      -2.591  -2.384   0.000  0.00  0.00    +0.239 HD
ENDBRANCH   8   9
BRANCH  11  17
ATOM     17  C   UNL     1      -4.217  -5.559   0.000  0.00  0.00    +0.350 C 
ATOM     20  O   UNL     1      -2.740  -5.819   0.000  0.00  0.00    -0.247 OA
BRANCH  17  18
ATOM     18  O   UNL     1      -5.182  -6.708   0.000  0.00  0.00    -0.465 OA
ATOM     19  C   UNL     1      -4.669  -8.117   0.000  0.00  0.00    +0.280 C 
ENDBRANCH  17  18
ENDBRANCH  11  17
BRANCH  11  12
ATOM     12  C   UNL     1      -2.293  -3.719   0.000  0.00  0.00    +0.178 C 
BRANCH  12  13
ATOM     13  C   UNL     1      -1.780  -2.310   0.000  0.00  0.00    +0.311 C 
ATOM     16  O   UNL     1      -2.744  -1.161   0.000  0.00  0.00    -0.251 OA
BRANCH  13  14
ATOM     14  O   UNL     1      -0.303  -2.049   0.000  0.00  0.00    -0.468 OA
ATOM     15  C   UNL     1       0.210  -0.640   0.000  0.00  0.00    +0.280 C 
ENDBRANCH  13  14
ENDBRANCH  12  13
ENDBRANCH  11  12
TORSDOF 6