REMARK  Name = 141538
REMARK  9 active torsions:
REMARK  status: ('A' for Active; 'I' for Inactive)
REMARK    1  A    between atoms: C_9  and  C_11
REMARK    2  A    between atoms: C_9  and  O_16
REMARK    3  A    between atoms: C_10  and  O_13
REMARK    4  A    between atoms: C_11  and  C_15
REMARK    5  A    between atoms: C_12  and  C_17
REMARK    6  A    between atoms: O_13  and  C_14
REMARK    7  A    between atoms: C_17  and  C_18
REMARK    8  A    between atoms: C_19  and  C_20
REMARK    9  A    between atoms: C_19  and  C_21
REMARK                            x       y       z     vdW  Elec       q    Type
REMARK                         _______ _______ _______ _____ _____    ______ ____
ROOT
ATOM      1  O   UNL     1      -7.778  -2.049   0.000  0.00  0.00    -0.295 OA
ATOM      2  C   UNL     1      -6.278  -2.049   0.000  0.00  0.00    +0.165 C 
ATOM      3  C   UNL     1      -5.528  -3.348   0.000  0.00  0.00    +0.221 C 
ATOM      6  C   UNL     1      -4.028  -3.348   0.000  0.00  0.00    +0.160 C 
ATOM     18  C   UNL     1      -3.278  -2.049   0.000  0.00  0.00    +0.127 C 
ATOM     19  C   UNL     1      -1.979  -2.799   0.000  0.00  0.00    +0.198 C 
ATOM     20  C   UNL     1      -4.028  -0.750   0.000  0.00  0.00    +0.048 C 
ATOM     21  O   UNL     1      -1.979  -1.299   0.000  0.00  0.00    -0.365 OA
ATOM     22  C   UNL     1      -5.528  -0.750   0.000  0.00  0.00    +0.080 C 
ENDROOT
BRANCH   6   9
ATOM      9  C   UNL     1      -4.458  -5.785   0.000  0.00  0.00    +0.128 C 
ATOM     10  C   UNL     1      -5.958  -5.785   0.000  0.00  0.00    +0.047 C 
ATOM     11  C   UNL     1      -3.049  -6.298   0.000  0.00  0.00    +0.157 C 
ATOM     17  O   UNL     1      -4.198  -7.263   0.000  0.00  0.00    -0.362 OA
BRANCH  11  12
ATOM     12  C   UNL     1      -2.299  -7.598   0.000  0.00  0.00    +0.061 C 
BRANCH  12  13
ATOM     13  C   UNL     1      -3.049  -8.897   0.000  0.00  0.00    -0.026 C 
ATOM     14  C   UNL     1      -4.549  -8.897   0.000  0.00  0.00    -0.080 C 
ATOM     15  C   UNL     1      -5.299 -10.196   0.000  0.00  0.00    +0.038 C 
ATOM     16  C   UNL     1      -5.299  -7.598   0.000  0.00  0.00    +0.038 C 
ENDBRANCH  12  13
ENDBRANCH  11  12
ENDBRANCH   6   9
BRANCH   3   4
ATOM      4  O   UNL     1      -6.278  -4.647   0.000  0.00  0.00    -0.369 OA
ATOM      5  C   UNL     1      -7.778  -4.647   0.000  0.00  0.00    +0.195 C 
ENDBRANCH   3   4
BRANCH   6   7
ATOM      7  O   UNL     1      -2.619  -3.861   0.000  0.00  0.00    -0.380 OA
ATOM      8  H   UNL     1      -2.450  -4.816   0.000  0.00  0.00    +0.211 HD
ENDBRANCH   6   7
TORSDOF 5