REMARK  Name = 120290
REMARK  4 active torsions:
REMARK  status: ('A' for Active; 'I' for Inactive)
REMARK    1  A    between atoms: C_7  and  C_9
REMARK    2  A    between atoms: C_8  and  C_21
REMARK    3  A    between atoms: C_13  and  C_15
REMARK    4  A    between atoms: C_16  and  C_17
REMARK                            x       y       z     vdW  Elec       q    Type
REMARK                         _______ _______ _______ _____ _____    ______ ____
ROOT
ATOM     10  C   UNL     1       1.695   6.180   0.000  0.00  0.00    -0.008 A 
ATOM     11  C   UNL     1       2.994   5.430   0.000  0.00  0.00    +0.010 A 
ATOM     12  C   UNL     1       4.293   6.180   0.000  0.00  0.00    +0.010 A 
ATOM     13  C   UNL     1       4.293   7.680   0.000  0.00  0.00    -0.008 A 
ATOM     14  C   UNL     1       2.994   8.430   0.000  0.00  0.00    +0.010 A 
ATOM     25  C   UNL     1       1.695   7.680   0.000  0.00  0.00    +0.010 A 
ENDROOT
BRANCH  10   9
ATOM      1  N   UNL     1      -1.978   4.926   0.000  0.00  0.00    -0.109 NA
ATOM      2  N   UNL     1      -1.228   3.627   0.000  0.00  0.00    -0.136 NA
ATOM      3  C   UNL     1       0.239   3.939   0.000  0.00  0.00    +0.164 A 
ATOM      9  C   UNL     1       0.396   5.430   0.000  0.00  0.00    +0.072 A 
ATOM     26  S   UNL     1      -0.974   6.040   0.000  0.00  0.00    +0.037 S 
BRANCH   3   4
ATOM      4  C   UNL     1       1.354   2.935   0.000  0.00  0.00    +0.263 C 
ATOM      5  N   UNL     1       2.781   3.398   0.000  0.00  0.00    -0.324 N 
ATOM      6  H   UNL     1       2.985   4.361   0.000  0.00  0.00    +0.145 HD
ATOM      7  H   UNL     1       3.512   2.740   0.000  0.00  0.00    +0.145 HD
ATOM      8  O   UNL     1       1.042   1.468   0.000  0.00  0.00    -0.269 OA
ENDBRANCH   3   4
ENDBRANCH  10   9
BRANCH  13  15
ATOM     15  C   UNL     1       5.592   8.430   0.000  0.00  0.00    +0.072 A 
ATOM     16  C   UNL     1       6.963   7.820   0.000  0.00  0.00    +0.164 A 
ATOM     22  N   UNL     1       7.966   8.935   0.000  0.00  0.00    -0.136 NA
ATOM     23  N   UNL     1       7.216  10.234   0.000  0.00  0.00    -0.109 NA
ATOM     24  S   UNL     1       5.749   9.922   0.000  0.00  0.00    +0.037 S 
BRANCH  16  17
ATOM     17  C   UNL     1       7.274   6.353   0.000  0.00  0.00    +0.263 C 
ATOM     18  O   UNL     1       8.701   5.890   0.000  0.00  0.00    -0.269 OA
ATOM     19  N   UNL     1       6.160   5.349   0.000  0.00  0.00    -0.324 N 
ATOM     20  H   UNL     1       6.364   4.386   0.000  0.00  0.00    +0.145 HD
ATOM     21  H   UNL     1       5.223   5.654   0.000  0.00  0.00    +0.145 HD
ENDBRANCH  16  17
ENDBRANCH  13  15
TORSDOF 4