REMARK  Name = 158413
REMARK  4 active torsions:
REMARK  status: ('A' for Active; 'I' for Inactive)
REMARK    1  A    between atoms: S_1  and  C_18
REMARK    2  A    between atoms: S_1  and  C_19
REMARK    3  A    between atoms: C_7  and  S_25
REMARK    4  A    between atoms: C_14  and  C_15
REMARK                            x       y       z     vdW  Elec       q    Type
REMARK                         _______ _______ _______ _____ _____    ______ ____
ROOT
ATOM     13  C   UNL     1      -8.544  -3.750   0.000  0.00  0.00    +0.073 A 
ATOM     14  C   UNL     1      -8.544  -5.250   0.000  0.00  0.00    +0.049 A 
ATOM     15  C   UNL     1      -7.245  -6.000   0.000  0.00  0.00    +0.052 A 
ATOM     16  C   UNL     1      -5.946  -5.250   0.000  0.00  0.00    +0.021 A 
ATOM     17  C   UNL     1      -4.647  -6.000   0.000  0.00  0.00    +0.041 A 
ATOM     18  C   UNL     1      -3.348  -5.250   0.000  0.00  0.00    +0.122 A 
ATOM     23  C   UNL     1      -3.348  -3.750   0.000  0.00  0.00    +0.032 A 
ATOM     24  C   UNL     1      -4.647  -3.000   0.000  0.00  0.00    +0.030 A 
ATOM     25  C   UNL     1      -5.946  -3.750   0.000  0.00  0.00    +0.073 A 
ATOM     26 CL   UNL     1      -7.245  -7.500   0.000  0.00  0.00    -0.083 Cl
ATOM     27  N   UNL     1      -7.245  -3.000   0.000  0.00  0.00    -0.247 NA
ENDROOT
BRANCH  13  12
ATOM      8  C   UNL     1     -12.441  -3.000   0.000  0.00  0.00    +0.013 A 
ATOM      9  C   UNL     1     -12.441  -1.500   0.000  0.00  0.00    +0.015 A 
ATOM     10  C   UNL     1     -11.142  -0.750   0.000  0.00  0.00    +0.002 A 
ATOM     11  C   UNL     1      -9.843  -1.500   0.000  0.00  0.00    +0.010 A 
ATOM     12  C   UNL     1      -9.843  -3.000   0.000  0.00  0.00    +0.001 A 
ATOM     28  C   UNL     1     -11.142  -3.750   0.000  0.00  0.00    +0.025 A 
BRANCH   8   1
ATOM      1  S   UNL     1     -13.740  -3.750   0.000  0.00  0.00    -0.089 S 
BRANCH   1   2
ATOM      2  C   UNL     1     -13.740  -5.250   0.000  0.00  0.00    +0.013 A 
ATOM      3  C   UNL     1     -15.039  -6.000   0.000  0.00  0.00    +0.015 A 
ATOM      4  C   UNL     1     -15.039  -7.500   0.000  0.00  0.00    +0.001 A 
ATOM      5  C   UNL     1     -13.740  -8.250   0.000  0.00  0.00    +0.000 A 
ATOM      6  C   UNL     1     -12.441  -7.500   0.000  0.00  0.00    +0.001 A 
ATOM      7  C   UNL     1     -12.441  -6.000   0.000  0.00  0.00    +0.015 A 
ENDBRANCH   1   2
ENDBRANCH   8   1
ENDBRANCH  13  12
BRANCH  18  19
ATOM     19  S   UNL     1      -2.049  -6.000   0.000  0.00  0.00    +0.147 S 
ATOM     20  F   UNL     1      -0.750  -6.750   0.000  0.00  0.00    -0.056 F 
ATOM     21  O   UNL     1      -1.299  -4.701   0.000  0.00  0.00    -0.138 OA
ATOM     22  O   UNL     1      -2.799  -7.299   0.000  0.00  0.00    -0.138 OA
ENDBRANCH  18  19
TORSDOF 4