REMARK  Name = 105432
REMARK  6 active torsions:
REMARK  status: ('A' for Active; 'I' for Inactive)
REMARK    1  A    between atoms: C_1  and  N_12
REMARK    2  A    between atoms: C_1  and  C_13
REMARK    3  A    between atoms: C_7  and  N_12
REMARK    4  A    between atoms: C_9  and  S_16
REMARK    5  A    between atoms: C_13  and  O_15
REMARK    6  A    between atoms: S_16  and  N_19
REMARK                            x       y       z     vdW  Elec       q    Type
REMARK                         _______ _______ _______ _____ _____    ______ ____
ROOT
ATOM      8  C   UNL     1       5.825  -0.765   0.000  0.00  0.00    +0.028 A 
ATOM      9  C   UNL     1       5.825  -2.265   0.000  0.00  0.00    +0.025 A 
ATOM     10  C   UNL     1       7.124  -3.015   0.000  0.00  0.00    +0.030 A 
ATOM     11  C   UNL     1       8.423  -2.265   0.000  0.00  0.00    +0.105 A 
ATOM     18  C   UNL     1       8.423  -0.765   0.000  0.00  0.00    +0.030 A 
ATOM     19  C   UNL     1       7.124  -0.015   0.000  0.00  0.00    +0.025 A 
ENDROOT
BRANCH  11  12
ATOM     12  S   UNL     1       9.722  -3.015   0.000  0.00  0.00    +0.056 S 
ATOM     16  O   UNL     1      10.472  -1.716   0.000  0.00  0.00    -0.153 OA
ATOM     17  O   UNL     1       8.972  -4.314   0.000  0.00  0.00    -0.153 OA
BRANCH  12  13
ATOM     13  N   UNL     1      11.021  -3.765   0.000  0.00  0.00    -0.204 NA
ATOM     14  H   UNL     1      11.904  -3.255   0.000  0.00  0.00    +0.144 HD
ATOM     15  H   UNL     1      11.021  -4.785   0.000  0.00  0.00    +0.144 HD
ENDBRANCH  12  13
ENDBRANCH  11  12
BRANCH   8   6
ATOM      6  N   UNL     1       4.526  -0.015   0.000  0.00  0.00    -0.329 N 
ATOM      7  H   UNL     1       3.634  -0.431   0.000  0.00  0.00    +0.147 HD
BRANCH   6   1
ATOM      1  C   UNL     1       4.786   1.462   0.000  0.00  0.00    +0.130 C 
ATOM     20  C   UNL     1       6.228   1.049   0.000  0.00  0.00    +0.037 C 
ATOM     21  C   UNL     1       7.067   2.292   0.000  0.00  0.00    +0.003 C 
ATOM     22  C   UNL     1       6.144   3.474   0.000  0.00  0.00    +0.003 C 
ATOM     23  C   UNL     1       4.734   2.961   0.000  0.00  0.00    +0.037 C 
BRANCH   1   2
ATOM      2  C   UNL     1       3.290   1.567   0.000  0.00  0.00    +0.328 C 
ATOM      5  O   UNL     1       2.451   0.323   0.000  0.00  0.00    -0.249 OA
BRANCH   2   3
ATOM      3  O   UNL     1       2.632   2.915   0.000  0.00  0.00    -0.479 OA
ATOM      4  H   UNL     1       3.156   3.692   0.000  0.00  0.00    +0.295 HD
ENDBRANCH   2   3
ENDBRANCH   1   2
ENDBRANCH   6   1
ENDBRANCH   8   6
TORSDOF 6