REMARK  Name = 126226
REMARK  9 active torsions:
REMARK  status: ('A' for Active; 'I' for Inactive)
REMARK    1  A    between atoms: O_2  and  C_14
REMARK    2  A    between atoms: O_2  and  C_16
REMARK    3  A    between atoms: C_7  and  C_21
REMARK    4  A    between atoms: C_10  and  C_14
REMARK    5  A    between atoms: C_16  and  C_17
REMARK    6  A    between atoms: C_17  and  O_18
REMARK    7  A    between atoms: C_17  and  C_19
REMARK    8  A    between atoms: C_19  and  O_20
REMARK    9  A    between atoms: O_20  and  C_21
REMARK                            x       y       z     vdW  Elec       q    Type
REMARK                         _______ _______ _______ _____ _____    ______ ____
ROOT
ATOM     10  C   UNL     1       5.471   7.024   0.000  0.00  0.00    +0.189 C 
ENDROOT
BRANCH  10  21
ATOM     21  O   UNL     1       4.172   7.774   0.000  0.00  0.00    -0.385 OA
ATOM     22  H   UNL     1       4.172   8.744   0.000  0.00  0.00    +0.210 HD
ENDBRANCH  10  21
BRANCH  10   9
ATOM      9  C   UNL     1       5.471   5.524   0.000  0.00  0.00    +0.267 C 
BRANCH   9   8
ATOM      8  O   UNL     1       4.172   4.774   0.000  0.00  0.00    -0.458 OA
BRANCH   8   6
ATOM      6  C   UNL     1       2.873   5.524   0.000  0.00  0.00    +0.341 C 
ATOM      7  O   UNL     1       2.873   7.024   0.000  0.00  0.00    -0.245 OA
BRANCH   6   5
ATOM      1  N   UNL     1      -1.025   4.774   0.000  0.00  0.00    -0.262 NA
ATOM      2  C   UNL     1      -1.025   3.275   0.000  0.00  0.00    +0.111 A 
ATOM      3  C   UNL     1       0.275   2.525   0.000  0.00  0.00    +0.020 A 
ATOM      4  C   UNL     1       1.574   3.275   0.000  0.00  0.00    +0.018 A 
ATOM      5  C   UNL     1       1.574   4.774   0.000  0.00  0.00    +0.077 A 
ATOM     23  C   UNL     1       0.275   5.524   0.000  0.00  0.00    +0.125 A 
ENDBRANCH   6   5
ENDBRANCH   8   6
ENDBRANCH   9   8
ENDBRANCH  10   9
BRANCH  10  11
ATOM     11  C   UNL     1       6.770   7.774   0.000  0.00  0.00    +0.267 C 
BRANCH  11  12
ATOM     12  O   UNL     1       6.770   9.274   0.000  0.00  0.00    -0.458 OA
BRANCH  12  13
ATOM     13  C   UNL     1       8.069  10.025   0.000  0.00  0.00    +0.341 C 
ATOM     14  O   UNL     1       8.069  11.525   0.000  0.00  0.00    -0.245 OA
BRANCH  13  15
ATOM     15  C   UNL     1       9.368   9.274   0.000  0.00  0.00    +0.077 A 
ATOM     16  C   UNL     1      10.667  10.025   0.000  0.00  0.00    +0.125 A 
ATOM     17  N   UNL     1      11.966   9.274   0.000  0.00  0.00    -0.262 NA
ATOM     18  C   UNL     1      11.966   7.774   0.000  0.00  0.00    +0.111 A 
ATOM     19  C   UNL     1      10.667   7.024   0.000  0.00  0.00    +0.020 A 
ATOM     20  C   UNL     1       9.368   7.774   0.000  0.00  0.00    +0.018 A 
ENDBRANCH  13  15
ENDBRANCH  12  13
ENDBRANCH  11  12
ENDBRANCH  10  11
TORSDOF 9