REMARK  Name = 148304
REMARK  6 active torsions:
REMARK  status: ('A' for Active; 'I' for Inactive)
REMARK    1  A    between atoms: C_1  and  C_2
REMARK    2  A    between atoms: C_1  and  N_3
REMARK    3  A    between atoms: N_3  and  C_4
REMARK    4  A    between atoms: C_4  and  N_6
REMARK    5  A    between atoms: N_6  and  C_7
REMARK    6  A    between atoms: C_7  and  C_8
REMARK                            x       y       z     vdW  Elec       q    Type
REMARK                         _______ _______ _______ _____ _____    ______ ____
ROOT
ATOM      4  C   UNL     1      -3.750  -2.049   0.000  0.00  0.00    +0.130 C 
ATOM     10  S   UNL     1      -3.000  -0.750   0.000  0.00  0.00    -0.019 S 
ENDROOT
BRANCH   4   2
ATOM      2  N   UNL     1      -5.250  -2.049   0.000  0.00  0.00    -0.327 N 
ATOM      3  H   UNL     1      -5.742  -2.902   0.000  0.00  0.00    +0.148 HD
BRANCH   2   1
ATOM      1  C   UNL     1      -6.000  -0.750   0.000  0.00  0.00    +0.100 C 
ATOM     11  C   UNL     1      -7.500  -0.750   0.000  0.00  0.00    +0.024 C 
ENDBRANCH   2   1
ENDBRANCH   4   2
BRANCH   4   5
ATOM      5  N   UNL     1      -3.000  -3.348   0.000  0.00  0.00    -0.323 N 
ATOM      6  H   UNL     1      -3.492  -4.201   0.000  0.00  0.00    +0.148 HD
BRANCH   5   7
ATOM      7  C   UNL     1      -1.500  -3.348   0.000  0.00  0.00    +0.130 C 
BRANCH   7   8
ATOM      8  C   UNL     1      -0.750  -2.049   0.000  0.00  0.00    -0.016 C 
ATOM      9  C   UNL     1      -1.500  -0.750   0.000  0.00  0.00    +0.005 C 
ENDBRANCH   7   8
ENDBRANCH   5   7
ENDBRANCH   4   5
TORSDOF 5