REMARK  Name = NSC 216128
REMARK  10 active torsions:
REMARK  status: ('A' for Active; 'I' for Inactive)
REMARK    1  A    between atoms: C_4  and  O_5
REMARK    2  A    between atoms: C_6  and  C_7
REMARK    3  A    between atoms: C_9  and  C_10
REMARK    4  A    between atoms: C_12  and  C_13
REMARK    5  A    between atoms: C_15  and  C_16
REMARK    6  A    between atoms: C_17  and  O_18
REMARK    7  A    between atoms: C_19  and  C_20
REMARK    8  A    between atoms: C_26  and  C_27
REMARK    9  A    between atoms: C_28  and  C_29
REMARK   10  A    between atoms: C_29  and  O_30
REMARK                            x       y       z     vdW  Elec       q    Type
REMARK                         _______ _______ _______ _____ _____    ______ ____
ROOT
ATOM      1  O   UNL     1      11.142   0.750   0.000  0.00  0.00    -0.251 OA
ATOM      2  C   UNL     1      11.142   2.250   0.000  0.00  0.00    +0.310 C 
ATOM      3  C   UNL     1       9.843   3.000   0.000  0.00  0.00    +0.152 C 
ATOM      4  C   UNL     1       8.544   2.250   0.000  0.00  0.00    +0.128 C 
ATOM      7  C   UNL     1       7.245   3.000   0.000  0.00  0.00    +0.015 C 
ATOM      8  C   UNL     1       7.245   1.500   0.000  0.00  0.00    +0.010 C 
ATOM      9  C   UNL     1       5.946   2.250   0.000  0.00  0.00    +0.009 C 
ATOM     10  C   UNL     1       4.647   3.000   0.000  0.00  0.00    -0.013 C 
ATOM     11  C   UNL     1       4.647   1.500   0.000  0.00  0.00    +0.007 C 
ATOM     12  C   UNL     1       3.348   2.250   0.000  0.00  0.00    +0.006 C 
ATOM     13  C   UNL     1       2.049   3.000   0.000  0.00  0.00    -0.013 C 
ATOM     14  C   UNL     1       0.750   2.250   0.000  0.00  0.00    +0.007 C 
ATOM     15  C   UNL     1       2.049   4.500   0.000  0.00  0.00    +0.009 C 
ATOM     16  C   UNL     1       3.348   5.250   0.000  0.00  0.00    +0.020 C 
ATOM     17  C   UNL     1       3.348   6.750   0.000  0.00  0.00    +0.010 C 
ATOM     18  C   UNL     1       4.647   4.500   0.000  0.00  0.00    +0.158 C 
ATOM     21  C   UNL     1       5.946   5.250   0.000  0.00  0.00    +0.058 C 
ATOM     24  C   UNL     1       7.245   4.500   0.000  0.00  0.00    +0.017 C 
ATOM     25  C   UNL     1       8.544   5.250   0.000  0.00  0.00    -0.003 C 
ATOM     26  C   UNL     1       9.843   4.500   0.000  0.00  0.00    -0.023 C 
ATOM     27  C   UNL     1      11.142   5.250   0.000  0.00  0.00    +0.072 C 
ATOM     28  C   UNL     1      12.441   4.500   0.000  0.00  0.00    +0.184 C 
ATOM     38  O   UNL     1      12.441   3.000   0.000  0.00  0.00    -0.461 OA
ENDROOT
BRANCH  28  29
ATOM     29  C   UNL     1      13.740   5.250   0.000  0.00  0.00    +0.044 C 
ATOM     30  C   UNL     1      15.111   4.640   0.000  0.00  0.00    +0.104 C 
ATOM     35  C   UNL     1      16.114   5.755   0.000  0.00  0.00    +0.015 C 
ATOM     36  C   UNL     1      15.364   7.054   0.000  0.00  0.00    +0.001 C 
ATOM     37  C   UNL     1      13.897   6.742   0.000  0.00  0.00    +0.008 C 
BRANCH  30  31
ATOM     31  C   UNL     1      15.423   3.173   0.000  0.00  0.00    +0.308 C 
ATOM     34  O   UNL     1      14.308   2.169   0.000  0.00  0.00    -0.251 OA
BRANCH  31  32
ATOM     32  O   UNL     1      16.849   2.709   0.000  0.00  0.00    -0.480 OA
ATOM     33  H   UNL     1      17.044   1.793   0.000  0.00  0.00    +0.295 HD
ENDBRANCH  31  32
ENDBRANCH  30  31
ENDBRANCH  28  29
BRANCH   4   5
ATOM      5  O   UNL     1       8.544   0.750   0.000  0.00  0.00    -0.391 OA
ATOM      6  H   UNL     1       7.704   0.265   0.000  0.00  0.00    +0.210 HD
ENDBRANCH   4   5
BRANCH  18  19
ATOM     19  O   UNL     1       4.647   6.000   0.000  0.00  0.00    -0.386 OA
ATOM     20  H   UNL     1       5.487   6.485   0.000  0.00  0.00    +0.210 HD
ENDBRANCH  18  19
BRANCH  21  22
ATOM     22  C   UNL     1       5.946   6.750   0.000  0.00  0.00    +0.097 C 
ATOM     23  N   UNL     1       5.946   8.250   0.000  0.00  0.00    -0.191 NA
ENDBRANCH  21  22
TORSDOF 6