REMARK  Name = NSC 210236
REMARK  5 active torsions:
REMARK  status: ('A' for Active; 'I' for Inactive)
REMARK    1  A    between atoms: C_6  and  O_7
REMARK    2  A    between atoms: C_9  and  C_10
REMARK    3  A    between atoms: C_14  and  C_15
REMARK    4  A    between atoms: C_17  and  O_18
REMARK    5  A    between atoms: C_20  and  C_21
REMARK                            x       y       z     vdW  Elec       q    Type
REMARK                         _______ _______ _______ _____ _____    ______ ____
ROOT
ATOM      1  O   UNL     1       1.655   3.880   0.000  0.00  0.00    -0.245 OA
ATOM      2  C   UNL     1       3.041   3.306   0.000  0.00  0.00    +0.335 C 
ATOM      3  C   UNL     1       4.101   4.367   0.000  0.00  0.00    +0.035 C 
ATOM      4  C   UNL     1       3.527   5.753   0.000  0.00  0.00    +0.020 C 
ATOM      5  C   UNL     1       5.601   4.367   0.000  0.00  0.00    +0.058 C 
ATOM      6  C   UNL     1       6.662   3.306   0.000  0.00  0.00    +0.126 C 
ATOM      9  C   UNL     1       7.961   4.056   0.000  0.00  0.00    +0.062 C 
ATOM     10  C   UNL     1       9.260   3.306   0.000  0.00  0.00    -0.074 C 
ATOM     11  C   UNL     1       9.260   4.806   0.000  0.00  0.00    +0.039 C 
ATOM     12  C   UNL     1      10.559   4.056   0.000  0.00  0.00    -0.027 C 
ATOM     13  C   UNL     1      11.858   3.306   0.000  0.00  0.00    +0.031 C 
ATOM     14  C   UNL     1      11.858   1.806   0.000  0.00  0.00    +0.034 C 
ATOM     15  C   UNL     1      10.559   1.056   0.000  0.00  0.00    -0.074 C 
ATOM     16  C   UNL     1      10.559  -0.444   0.000  0.00  0.00    +0.039 C 
ATOM     17  C   UNL     1       9.260   1.806   0.000  0.00  0.00    +0.003 C 
ATOM     18  C   UNL     1       7.961   1.056   0.000  0.00  0.00    +0.138 C 
ATOM     21  C   UNL     1       6.662   1.806   0.000  0.00  0.00    +0.042 C 
ATOM     22  C   UNL     1       5.601   0.746   0.000  0.00  0.00    +0.029 C 
ATOM     23  C   UNL     1       6.176  -0.640   0.000  0.00  0.00    +0.011 C 
ATOM     24  C   UNL     1       4.101   0.746   0.000  0.00  0.00    +0.180 C 
ATOM     25  C   UNL     1       4.851   2.556   0.000  0.00  0.00    +0.056 C 
ATOM     26  O   UNL     1       3.041   1.806   0.000  0.00  0.00    -0.458 OA
ENDROOT
BRANCH   6   7
ATOM      7  O   UNL     1       6.858   4.793   0.000  0.00  0.00    -0.391 OA
ATOM      8  H   UNL     1       7.754   5.165   0.000  0.00  0.00    +0.210 HD
ENDBRANCH   6   7
BRANCH  18  19
ATOM     19  O   UNL     1       7.961  -0.444   0.000  0.00  0.00    -0.388 OA
ATOM     20  H   UNL     1       7.121  -0.929   0.000  0.00  0.00    +0.210 HD
ENDBRANCH  18  19
TORSDOF 2