REMARK  Name = NSC 21728#2
REMARK  1 active torsions:
REMARK  status: ('A' for Active; 'I' for Inactive)
REMARK    1  A    between atoms: N_1  and  O_3
REMARK                            x       y       z     vdW  Elec       q    Type
REMARK                         _______ _______ _______ _____ _____    ______ ____
ROOT
ATOM      1  N   UNL     1       1.671  11.063   0.000  0.00  0.00    +0.282 N 
ATOM      2  O   UNL     1       0.372  10.313   0.000  0.00  0.00    -0.534 OA
ATOM      5  O   UNL     1       1.671  12.563   0.000  0.00  0.00    +0.093 OA
ENDROOT
BRANCH   1   3
ATOM      3  O   UNL     1       2.970  10.313   0.000  0.00  0.00    -0.231 OA
ATOM      4  H   UNL     1       2.970   9.376   0.000  0.00  0.00    +0.390 HD
ENDBRANCH   1   3
TORSDOF 1