REMARK  Name = NSC 22939
REMARK  9 active torsions:
REMARK  status: ('A' for Active; 'I' for Inactive)
REMARK    1  A    between atoms: C_2  and  C_3
REMARK    2  A    between atoms: C_3  and  C_4
REMARK    3  A    between atoms: C_4  and  C_5
REMARK    4  A    between atoms: C_4  and  C_6
REMARK    5  A    between atoms: C_9  and  C_10
REMARK    6  A    between atoms: C_10  and  C_11
REMARK    7  A    between atoms: C_10  and  C_12
REMARK    8  A    between atoms: C_12  and  C_13
REMARK    9  A    between atoms: N_14  and  O_15
REMARK                            x       y       z     vdW  Elec       q    Type
REMARK                         _______ _______ _______ _____ _____    ______ ____
ROOT
ATOM      1  C   UNL     1       7.520  -0.475   0.000  0.00  0.00    +0.305 A 
ATOM      2  C   UNL     1       7.520  -1.975   0.000  0.00  0.00    +0.109 A 
ATOM      7  N   UNL     1       6.221  -2.725   0.000  0.00  0.00    -0.253 NA
ATOM      8  C   UNL     1       4.922  -1.976   0.000  0.00  0.00    +0.136 A 
ATOM      9  C   UNL     1       4.922  -0.475   0.000  0.00  0.00    +0.082 A 
ATOM     14  N   UNL     1       6.221   0.275   0.000  0.00  0.00    -0.148 N 
ATOM     17  O   UNL     1       8.819   0.275   0.000  0.00  0.00    -0.263 OA
ENDROOT
BRANCH   9  10
ATOM     10  C   UNL     1       3.623   0.275   0.000  0.00  0.00    +0.037 C 
ATOM     11  C   UNL     1       3.623   1.775   0.000  0.00  0.00    +0.014 C 
BRANCH  10  12
ATOM     12  C   UNL     1       2.324  -0.475   0.000  0.00  0.00    +0.006 C 
ATOM     13  C   UNL     1       1.025   0.275   0.000  0.00  0.00    +0.004 C 
ENDBRANCH  10  12
ENDBRANCH   9  10
BRANCH  14  15
ATOM     15  O   UNL     1       6.221   1.775   0.000  0.00  0.00    -0.423 OA
ATOM     16  H   UNL     1       7.032   2.243   0.000  0.00  0.00    +0.326 HD
ENDBRANCH  14  15
BRANCH   2   3
ATOM      3  C   UNL     1       8.819  -2.725   0.000  0.00  0.00    +0.064 C 
BRANCH   3   4
ATOM      4  C   UNL     1      10.118  -1.975   0.000  0.00  0.00    -0.011 C 
ATOM      5  C   UNL     1      10.118  -0.475   0.000  0.00  0.00    +0.007 C 
ATOM      6  C   UNL     1      11.417  -2.725   0.000  0.00  0.00    +0.007 C 
ENDBRANCH   3   4
ENDBRANCH   2   3
TORSDOF 5