REMARK  Name = NSC 21728#1
REMARK  0 active torsions:
REMARK  status: ('A' for Active; 'I' for Inactive)
REMARK                            x       y       z     vdW  Elec       q    Type
REMARK                         _______ _______ _______ _____ _____    ______ ____
ROOT
ATOM      1  N   UNL     1       3.522   4.399   0.000  0.00  0.00    -0.321 N 
ATOM      2  C   UNL     1       2.223   3.650   0.000  0.00  0.00    +0.095 A 
ATOM      3  C   UNL     1       0.924   4.399   0.000  0.00  0.00    -0.028 A 
ATOM      4  C   UNL     1      -0.375   3.650   0.000  0.00  0.00    +0.037 C 
ATOM      5  C   UNL     1      -1.674   4.399   0.000  0.00  0.00    +0.005 C 
ATOM      6  C   UNL     1      -1.674   5.899   0.000  0.00  0.00    +0.005 C 
ATOM      7  C   UNL     1      -0.375   6.649   0.000  0.00  0.00    +0.035 C 
ATOM      8  C   UNL     1       0.924   5.899   0.000  0.00  0.00    -0.041 A 
ATOM      9  C   UNL     1       2.223   6.649   0.000  0.00  0.00    +0.032 A 
ATOM     10  C   UNL     1       4.821   3.650   0.000  0.00  0.00    +0.092 A 
ATOM     11  C   UNL     1       6.120   4.399   0.000  0.00  0.00    +0.029 A 
ATOM     12  C   UNL     1       6.120   5.899   0.000  0.00  0.00    +0.013 A 
ATOM     13  C   UNL     1       4.821   6.649   0.000  0.00  0.00    +0.096 A 
ATOM     14  N   UNL     1       5.133   8.117   0.000  0.00  0.00    -0.245 NA
ATOM     15  C   UNL     1       6.625   8.274   0.000  0.00  0.00    +0.072 A 
ATOM     16  C   UNL     1       7.507   9.487   0.000  0.00  0.00    +0.028 A 
ATOM     17  C   UNL     1       8.998   9.330   0.000  0.00  0.00    +0.002 A 
ATOM     18  C   UNL     1       9.608   7.960   0.000  0.00  0.00    +0.001 A 
ATOM     19  C   UNL     1       8.727   6.746   0.000  0.00  0.00    +0.010 A 
ATOM     20  C   UNL     1       7.235   6.903   0.000  0.00  0.00    +0.010 A 
ATOM     21  C   UNL     1       3.522   5.899   0.000  0.00  0.00    +0.072 A 
ENDROOT
TORSDOF 0