REMARK  Name = NSC 237671
REMARK  29 active torsions:
REMARK  status: ('A' for Active; 'I' for Inactive)
REMARK    1  A    between atoms: C_1  and  C_2
REMARK    2  A    between atoms: C_8  and  C_9
REMARK    3  A    between atoms: N_11  and  C_13
REMARK    4  A    between atoms: C_18  and  C_19
REMARK    5  A    between atoms: C_19  and  C_20
REMARK    6  A    between atoms: C_19  and  C_21
REMARK    7  A    between atoms: N_28  and  C_39
REMARK    8  A    between atoms: N_32  and  C_38
REMARK    9  A    between atoms: C_33  and  C_37
REMARK   10  A    between atoms: N_41  and  O_42
REMARK   11  A    between atoms: O_42  and  C_43
REMARK   12  A    between atoms: C_45  and  C_46
REMARK   13  A    between atoms: C_47  and  C_48
REMARK   14  A    between atoms: C_48  and  O_49
REMARK   15  A    between atoms: C_51  and  N_52
REMARK   16  A    between atoms: C_57  and  C_58
REMARK   17  A    between atoms: C_60  and  C_61
REMARK   18  A    between atoms: N_63  and  C_65
REMARK   19  A    between atoms: C_70  and  C_71
REMARK   20  A    between atoms: C_71  and  C_72
REMARK   21  A    between atoms: C_71  and  C_73
REMARK   22  A    between atoms: N_80  and  C_93
REMARK   23  A    between atoms: N_84  and  C_92
REMARK   24  A    between atoms: C_85  and  C_86
REMARK   25  A    between atoms: C_86  and  C_87
REMARK   26  A    between atoms: C_86  and  C_88
REMARK   27  A    between atoms: C_94  and  O_95
REMARK   28  A    between atoms: C_98  and  C_99
REMARK   29  A    between atoms: C_100  and  C_101
REMARK                            x       y       z     vdW  Elec       q    Type
REMARK                         _______ _______ _______ _____ _____    ______ ____
ROOT
ATOM      1  C   UNL     1     -12.126 -23.744   0.000  0.00  0.00    +0.047 C 
ATOM      2  C   UNL     1     -12.126 -22.244   0.000  0.00  0.00    -0.006 A 
ATOM      3  C   UNL     1     -10.827 -21.494   0.000  0.00  0.00    +0.157 A 
ATOM      4  O   UNL     1      -9.528 -22.244   0.000  0.00  0.00    -0.451 OA
ATOM      5  C   UNL     1      -8.229 -21.494   0.000  0.00  0.00    +0.161 A 
ATOM      6  C   UNL     1      -8.229 -19.994   0.000  0.00  0.00    +0.121 A 
ATOM      7  N   UNL     1      -9.528 -19.244   0.000  0.00  0.00    -0.239 NA
ATOM      8  C   UNL     1      -6.930 -19.244   0.000  0.00  0.00    +0.090 A 
ATOM     51  C   UNL     1      -5.631 -19.994   0.000  0.00  0.00    +0.087 A 
ATOM     55  C   UNL     1      -5.631 -21.494   0.000  0.00  0.00    +0.207 A 
ATOM     56  O   UNL     1      -4.332 -22.244   0.000  0.00  0.00    -0.286 OA
ATOM     57  C   UNL     1      -6.930 -22.244   0.000  0.00  0.00    +0.042 A 
ATOM     58  C   UNL     1      -6.930 -23.744   0.000  0.00  0.00    +0.052 C 
ATOM     59  C   UNL     1     -10.827 -19.994   0.000  0.00  0.00    +0.119 A 
ATOM     60  C   UNL     1     -12.126 -19.244   0.000  0.00  0.00    +0.066 A 
ATOM    102  C   UNL     1     -13.425 -19.994   0.000  0.00  0.00    +0.015 A 
ATOM    103  C   UNL     1     -13.425 -21.494   0.000  0.00  0.00    +0.008 A 
ENDROOT
BRANCH   8   9
ATOM      9  C   UNL     1      -6.930 -17.219   0.000  0.00  0.00    +0.249 C 
ATOM     10  O   UNL     1      -5.631 -16.469   0.000  0.00  0.00    -0.270 OA
ATOM     11  N   UNL     1     -10.126 -15.373   0.000  0.00  0.00    -0.297 N 
ATOM     12  H   UNL     1     -11.425 -16.123   0.000  0.00  0.00    +0.150 HD
BRANCH  11  13
ATOM     13  C   UNL     1     -10.126 -13.873   0.000  0.00  0.00    +0.202 C 
ATOM     14  C   UNL     1     -11.425 -13.123   0.000  0.00  0.00    +0.238 C 
ATOM     15  O   UNL     1     -12.724 -13.873   0.000  0.00  0.00    -0.274 OA
ATOM     16  N   UNL     1     -11.425 -11.623   0.000  0.00  0.00    -0.302 N 
ATOM     17  H   UNL     1     -10.126 -10.873   0.000  0.00  0.00    +0.150 HD
ATOM     18  C   UNL     1     -12.724 -10.873   0.000  0.00  0.00    +0.162 C 
ATOM     22  C   UNL     1     -12.724  -9.373   0.000  0.00  0.00    +0.237 C 
ATOM     23  O   UNL     1     -11.425  -8.623   0.000  0.00  0.00    -0.274 OA
ATOM     24  N   UNL     1     -14.023  -8.623   0.000  0.00  0.00    -0.280 N 
ATOM     25  C   UNL     1     -14.023  -7.123   0.000  0.00  0.00    +0.210 C 
ATOM     26  C   UNL     1     -12.724  -6.373   0.000  0.00  0.00    +0.242 C 
ATOM     27  O   UNL     1     -12.724  -4.873   0.000  0.00  0.00    -0.273 OA
ATOM     28  N   UNL     1     -11.425  -7.123   0.000  0.00  0.00    -0.294 N 
ATOM     29  C   UNL     1     -10.126  -6.373   0.000  0.00  0.00    +0.203 C 
ATOM     30  C   UNL     1      -8.827  -7.123   0.000  0.00  0.00    +0.233 C 
ATOM     31  O   UNL     1      -7.528  -6.373   0.000  0.00  0.00    -0.274 OA
ATOM     32  N   UNL     1      -8.827  -8.623   0.000  0.00  0.00    -0.290 N 
ATOM     33  C   UNL     1      -7.528  -9.373   0.000  0.00  0.00    +0.181 C 
ATOM     34  C   UNL     1      -7.528 -10.873   0.000  0.00  0.00    +0.328 C 
ATOM     35  O   UNL     1      -8.827 -11.623   0.000  0.00  0.00    -0.455 OA
ATOM     36  O   UNL     1      -6.229 -11.623   0.000  0.00  0.00    -0.249 OA
ATOM     37  C   UNL     1      -6.229  -8.623   0.000  0.00  0.00    +0.040 C 
ATOM     38  C   UNL     1     -10.126  -9.373   0.000  0.00  0.00    +0.133 C 
ATOM     39  C   UNL     1     -11.425  -8.623   0.000  0.00  0.00    +0.132 C 
ATOM     40  C   UNL     1     -15.450  -6.660   0.000  0.00  0.00    +0.089 C 
ATOM     41  N   UNL     1     -15.913  -5.233   0.000  0.00  0.00    -0.092 NA
ATOM     44  C   UNL     1     -16.331  -7.873   0.000  0.00  0.00    +0.079 C 
ATOM     45  C   UNL     1     -15.450  -9.087   0.000  0.00  0.00    +0.080 C 
ATOM     46  C   UNL     1     -15.913 -10.514   0.000  0.00  0.00    +0.028 C 
ATOM     47  C   UNL     1      -8.827 -13.123   0.000  0.00  0.00    +0.231 C 
BRANCH  18  19
ATOM     19  C   UNL     1     -14.023 -11.623   0.000  0.00  0.00    +0.012 C 
ATOM     20  C   UNL     1     -15.322 -10.873   0.000  0.00  0.00    +0.009 C 
ATOM     21  C   UNL     1     -14.023 -13.123   0.000  0.00  0.00    +0.009 C 
ENDBRANCH  18  19
BRANCH  41  42
ATOM     42  O   UNL     1     -17.380  -4.921   0.000  0.00  0.00    -0.397 OA
ATOM     43  C   UNL     1     -17.844  -3.495   0.000  0.00  0.00    +0.313 C 
ENDBRANCH  41  42
BRANCH  47  48
ATOM     48  C   UNL     1      -7.528 -13.873   0.000  0.00  0.00    +0.202 C 
BRANCH  48  49
ATOM     49  O   UNL     1      -6.229 -13.123   0.000  0.00  0.00    -0.391 OA
ATOM     50  H   UNL     1      -4.930 -13.873   0.000  0.00  0.00    +0.210 HD
ENDBRANCH  48  49
ENDBRANCH  47  48
ENDBRANCH  11  13
ENDBRANCH   8   9
BRANCH  60  61
ATOM     61  C   UNL     1     -12.126 -17.744   0.000  0.00  0.00    +0.247 C 
ATOM     62  O   UNL     1     -10.827 -16.994   0.000  0.00  0.00    -0.270 OA
ATOM     63  N   UNL     1     -14.493 -16.377   0.000  0.00  0.00    -0.297 N 
ATOM     64  H   UNL     1     -14.493 -14.877   0.000  0.00  0.00    +0.150 HD
BRANCH  63  65
ATOM     65  C   UNL     1     -15.792 -17.127   0.000  0.00  0.00    +0.200 C 
ATOM     66  C   UNL     1     -17.092 -16.377   0.000  0.00  0.00    +0.238 C 
ATOM     67  O   UNL     1     -17.092 -14.877   0.000  0.00  0.00    -0.274 OA
ATOM     68  N   UNL     1     -18.390 -17.127   0.000  0.00  0.00    -0.302 N 
ATOM     69  H   UNL     1     -18.390 -18.627   0.000  0.00  0.00    +0.150 HD
ATOM     70  C   UNL     1     -19.690 -16.377   0.000  0.00  0.00    +0.162 C 
ATOM     74  C   UNL     1     -20.989 -17.127   0.000  0.00  0.00    +0.237 C 
ATOM     75  O   UNL     1     -20.989 -18.627   0.000  0.00  0.00    -0.274 OA
ATOM     76  N   UNL     1     -22.288 -16.377   0.000  0.00  0.00    -0.283 N 
ATOM     77  C   UNL     1     -23.587 -17.127   0.000  0.00  0.00    +0.191 C 
ATOM     78  C   UNL     1     -23.587 -18.627   0.000  0.00  0.00    +0.239 C 
ATOM     79  O   UNL     1     -24.886 -19.377   0.000  0.00  0.00    -0.273 OA
ATOM     80  N   UNL     1     -22.288 -19.377   0.000  0.00  0.00    -0.294 N 
ATOM     81  C   UNL     1     -22.288 -20.877   0.000  0.00  0.00    +0.203 C 
ATOM     82  C   UNL     1     -20.988 -21.627   0.000  0.00  0.00    +0.233 C 
ATOM     83  O   UNL     1     -20.988 -23.127   0.000  0.00  0.00    -0.274 OA
ATOM     84  N   UNL     1     -19.689 -20.877   0.000  0.00  0.00    -0.290 N 
ATOM     85  C   UNL     1     -18.390 -21.627   0.000  0.00  0.00    +0.187 C 
ATOM     89  C   UNL     1     -17.091 -20.877   0.000  0.00  0.00    +0.328 C 
ATOM     90  O   UNL     1     -17.092 -19.377   0.000  0.00  0.00    -0.458 OA
ATOM     91  O   UNL     1     -15.792 -21.627   0.000  0.00  0.00    -0.249 OA
ATOM     92  C   UNL     1     -19.689 -19.377   0.000  0.00  0.00    +0.133 C 
ATOM     93  C   UNL     1     -20.989 -18.627   0.000  0.00  0.00    +0.132 C 
ATOM     94  C   UNL     1     -24.701 -16.123   0.000  0.00  0.00    +0.146 C 
ATOM     97  C   UNL     1     -24.091 -14.753   0.000  0.00  0.00    +0.056 C 
ATOM     98  C   UNL     1     -22.600 -14.910   0.000  0.00  0.00    +0.076 C 
ATOM     99  C   UNL     1     -21.596 -13.795   0.000  0.00  0.00    +0.028 C 
ATOM    100  C   UNL     1     -15.792 -18.627   0.000  0.00  0.00    +0.203 C 
ATOM    101  C   UNL     1     -14.493 -19.377   0.000  0.00  0.00    +0.054 C 
BRANCH  70  71
ATOM     71  C   UNL     1     -19.690 -14.877   0.000  0.00  0.00    +0.012 C 
ATOM     72  C   UNL     1     -20.989 -14.127   0.000  0.00  0.00    +0.009 C 
ATOM     73  C   UNL     1     -18.390 -14.127   0.000  0.00  0.00    +0.009 C 
ENDBRANCH  70  71
BRANCH  85  86
ATOM     86  C   UNL     1     -18.390 -23.127   0.000  0.00  0.00    +0.014 C 
ATOM     87  C   UNL     1     -17.091 -23.877   0.000  0.00  0.00    +0.009 C 
ATOM     88  C   UNL     1     -19.689 -23.877   0.000  0.00  0.00    +0.009 C 
ENDBRANCH  85  86
BRANCH  94  95
ATOM     95  O   UNL     1     -26.169 -16.435   0.000  0.00  0.00    -0.389 OA
ATOM     96  H   UNL     1     -27.172 -15.320   0.000  0.00  0.00    +0.210 HD
ENDBRANCH  94  95
ENDBRANCH  63  65
ENDBRANCH  60  61
BRANCH  51  52
ATOM     52  N   UNL     1      -4.332 -19.244   0.000  0.00  0.00    -0.354 N 
ATOM     53  H   UNL     1      -4.332 -17.744   0.000  0.00  0.00    +0.142 HD
ATOM     54  H   UNL     1      -3.033 -19.994   0.000  0.00  0.00    +0.142 HD
ENDBRANCH  51  52
TORSDOF 12