REMARK  Name = NSC 184398
REMARK  9 active torsions:
REMARK  status: ('A' for Active; 'I' for Inactive)
REMARK    1  A    between atoms: C_2  and  C_3
REMARK    2  A    between atoms: C_4  and  O_5
REMARK    3  A    between atoms: C_6  and  O_7
REMARK    4  A    between atoms: C_9  and  C_10
REMARK    5  A    between atoms: C_11  and  O_12
REMARK    6  A    between atoms: C_18  and  O_19
REMARK    7  A    between atoms: C_21  and  C_22
REMARK    8  A    between atoms: C_21  and  O_23
REMARK    9  A    between atoms: C_27  and  O_28
REMARK                            x       y       z     vdW  Elec       q    Type
REMARK                         _______ _______ _______ _____ _____    ______ ____
ROOT
ATOM     12  C   UNL     1      -8.414  -8.724   0.000  0.00  0.00    +0.023 A 
ATOM     13  C   UNL     1      -7.115  -9.474   0.000  0.00  0.00    +0.134 A 
ATOM     16  C   UNL     1      -5.816  -8.724   0.000  0.00  0.00    +0.075 A 
ATOM     17  C   UNL     1      -4.517  -9.474   0.000  0.00  0.00    +0.198 C 
ATOM     18  C   UNL     1      -3.218  -8.724   0.000  0.00  0.00    +0.032 C 
ATOM     19  C   UNL     1      -1.919  -9.474   0.000  0.00  0.00    +0.011 C 
ATOM     20  C   UNL     1      -0.620  -8.724   0.000  0.00  0.00    +0.012 C 
ATOM     21  C   UNL     1      -0.620  -7.224   0.000  0.00  0.00    +0.127 C 
ATOM     24  C   UNL     1       0.679  -6.474   0.000  0.00  0.00    +0.077 C 
ATOM     25  C   UNL     1       0.679  -4.974   0.000  0.00  0.00    +0.073 C 
ATOM     26  C   UNL     1       2.156  -5.234   0.000  0.00  0.00    +0.042 C 
ATOM     29  C   UNL     1      -0.620  -4.224   0.000  0.00  0.00    +0.112 C 
ATOM     30  C   UNL     1      -1.919  -4.974   0.000  0.00  0.00    +0.175 C 
ATOM     31  O   UNL     1      -3.218  -4.224   0.000  0.00  0.00    -0.294 OA
ATOM     32  C   UNL     1      -1.919  -6.474   0.000  0.00  0.00    +0.185 C 
ATOM     35  C   UNL     1      -3.218  -7.224   0.000  0.00  0.00    +0.052 C 
ATOM     36  C   UNL     1      -4.517  -6.474   0.000  0.00  0.00    +0.194 C 
ATOM     37  O   UNL     1      -4.517  -4.974   0.000  0.00  0.00    -0.287 OA
ATOM     38  O   UNL     1      -4.517 -10.974   0.000  0.00  0.00    -0.286 OA
ATOM     39  C   UNL     1      -5.816  -7.224   0.000  0.00  0.00    +0.036 A 
ATOM     40  C   UNL     1      -7.115  -6.474   0.000  0.00  0.00    +0.013 A 
ATOM     41  C   UNL     1      -8.414  -7.224   0.000  0.00  0.00    +0.010 A 
ENDROOT
BRANCH  12  11
ATOM      1  O   UNL     1     -11.012  -8.724   0.000  0.00  0.00    -0.366 OA
ATOM      2  C   UNL     1     -12.312  -9.474   0.000  0.00  0.00    +0.147 C 
ATOM      3  C   UNL     1     -13.611  -8.724   0.000  0.00  0.00    +0.040 C 
ATOM      4  C   UNL     1     -12.312 -10.974   0.000  0.00  0.00    +0.171 C 
ATOM      7  C   UNL     1     -11.012 -11.724   0.000  0.00  0.00    +0.148 C 
ATOM     10  C   UNL     1      -9.713 -10.974   0.000  0.00  0.00    +0.070 C 
ATOM     11  C   UNL     1      -9.713  -9.474   0.000  0.00  0.00    +0.155 C 
BRANCH   4   5
ATOM      5  O   UNL     1     -13.611 -11.724   0.000  0.00  0.00    -0.387 OA
ATOM      6  H   UNL     1     -14.451 -11.239   0.000  0.00  0.00    +0.210 HD
ENDBRANCH   4   5
BRANCH   7   8
ATOM      8  O   UNL     1     -11.012 -13.224   0.000  0.00  0.00    -0.389 OA
ATOM      9  H   UNL     1     -11.852 -13.709   0.000  0.00  0.00    +0.210 HD
ENDBRANCH   7   8
ENDBRANCH  12  11
BRANCH  13  14
ATOM     14  O   UNL     1      -7.115 -10.974   0.000  0.00  0.00    -0.506 OA
ATOM     15  H   UNL     1      -7.927 -11.443   0.000  0.00  0.00    +0.292 HD
ENDBRANCH  13  14
BRANCH  21  22
ATOM     22  O   UNL     1       0.679  -7.974   0.000  0.00  0.00    -0.381 OA
ATOM     23  H   UNL     1       0.679  -8.944   0.000  0.00  0.00    +0.211 HD
ENDBRANCH  21  22
BRANCH  25  27
ATOM     27  O   UNL     1       1.192  -3.564   0.000  0.00  0.00    -0.388 OA
ATOM     28  H   UNL     1       2.147  -3.396   0.000  0.00  0.00    +0.210 HD
ENDBRANCH  25  27
BRANCH  32  33
ATOM     33  O   UNL     1      -3.218  -5.724   0.000  0.00  0.00    -0.373 OA
ATOM     34  H   UNL     1      -3.218  -4.754   0.000  0.00  0.00    +0.211 HD
ENDBRANCH  32  33
TORSDOF 7