REMARK  Name = NSC 180515
REMARK  2 active torsions:
REMARK  status: ('A' for Active; 'I' for Inactive)
REMARK    1  A    between atoms: C_8  and  C_9
REMARK    2  A    between atoms: C_9  and  C_10
REMARK                            x       y       z     vdW  Elec       q    Type
REMARK                         _______ _______ _______ _____ _____    ______ ____
ROOT
ATOM      1  O   UNL     1      -4.407  -0.336   0.000  0.00  0.00    -0.293 OA
ATOM      2  C   UNL     1      -2.927  -0.094   0.000  0.00  0.00    +0.156 C 
ATOM      3  C   UNL     1      -1.976  -1.254   0.000  0.00  0.00    +0.053 C 
ATOM      4  C   UNL     1      -0.496  -1.012   0.000  0.00  0.00    +0.095 C 
ATOM      5  C   UNL     1       0.674  -1.950   0.000  0.00  0.00    +0.333 C 
ATOM      6  O   UNL     1       0.604  -3.448   0.000  0.00  0.00    -0.246 OA
ATOM      7  O   UNL     1       1.928  -1.126   0.000  0.00  0.00    -0.451 OA
ATOM      8  C   UNL     1       1.532   0.321   0.000  0.00  0.00    +0.242 C 
ATOM     12  C   UNL     1       0.034   0.391   0.000  0.00  0.00    +0.053 C 
ATOM     13  C   UNL     1      -0.916   1.552   0.000  0.00  0.00    +0.012 C 
ATOM     14  C   UNL     1      -2.397   1.309   0.000  0.00  0.00    +0.079 C 
ENDROOT
BRANCH   8   9
ATOM      9  C   UNL     1       2.470   1.492   0.000  0.00  0.00    +0.171 C 
ATOM     10  C   UNL     1       3.953   1.265   0.000  0.00  0.00    +0.090 C 
ATOM     11  O   UNL     1       1.925   2.889   0.000  0.00  0.00    -0.294 OA
ENDBRANCH   8   9
TORSDOF 1