REMARK  Name = NSC 23969
REMARK  5 active torsions:
REMARK  status: ('A' for Active; 'I' for Inactive)
REMARK    1  A    between atoms: C_4  and  C_5
REMARK    2  A    between atoms: C_6  and  C_7
REMARK    3  A    between atoms: C_18  and  C_19
REMARK    4  A    between atoms: N_22  and  C_23
REMARK    5  A    between atoms: C_24  and  C_25
REMARK                            x       y       z     vdW  Elec       q    Type
REMARK                         _______ _______ _______ _____ _____    ______ ____
ROOT
ATOM      7  C   UNL     1      -1.025  -9.274   0.000  0.00  0.00    +0.022 C 
ATOM      8  C   UNL     1      -2.324 -10.025   0.000  0.00  0.00    -0.001 C 
ATOM      9  C   UNL     1      -2.324 -11.525   0.000  0.00  0.00    -0.007 C 
ATOM     10  C   UNL     1      -3.623 -12.275   0.000  0.00  0.00    +0.004 C 
ATOM     11  C   UNL     1      -4.922 -11.525   0.000  0.00  0.00    +0.000 C 
ATOM     12  C   UNL     1      -4.922 -10.025   0.000  0.00  0.00    +0.000 C 
ATOM     13  C   UNL     1      -1.025 -12.275   0.000  0.00  0.00    +0.019 C 
ATOM     14  C   UNL     1       0.275 -11.525   0.000  0.00  0.00    +0.105 C 
ATOM     15  C   UNL     1       1.701 -11.988   0.000  0.00  0.00    +0.311 C 
ATOM     16  O   UNL     1       2.165 -13.415   0.000  0.00  0.00    -0.251 OA
ATOM     17  O   UNL     1       2.583 -10.775   0.000  0.00  0.00    -0.461 OA
ATOM     18  C   UNL     1       1.701  -9.561   0.000  0.00  0.00    +0.178 C 
ATOM     19  C   UNL     1       2.165  -8.134   0.000  0.00  0.00    +0.052 C 
ATOM     20  C   UNL     1      -3.623  -9.274   0.000  0.00  0.00    +0.004 C 
ATOM     21  C   UNL     1       0.275 -10.025   0.000  0.00  0.00    +0.050 C 
ENDROOT
BRANCH   7   6
ATOM      5  C   UNL     1       0.275  -7.024   0.000  0.00  0.00    -0.012 C 
ATOM      6  C   UNL     1      -1.025  -7.774   0.000  0.00  0.00    -0.025 C 
BRANCH   5   4
ATOM      1  C   UNL     1       0.275  -2.525   0.000  0.00  0.00    +0.019 C 
ATOM      2  C   UNL     1      -1.025  -3.275   0.000  0.00  0.00    +0.003 C 
ATOM      3  C   UNL     1      -1.025  -4.774   0.000  0.00  0.00    +0.023 C 
ATOM      4  C   UNL     1       0.275  -5.524   0.000  0.00  0.00    +0.079 C 
ATOM     22  N   UNL     1       1.574  -4.774   0.000  0.00  0.00    -0.296 NA
ATOM     23  C   UNL     1       2.873  -5.524   0.000  0.00  0.00    +0.105 C 
ATOM     24  C   UNL     1       1.574  -3.275   0.000  0.00  0.00    +0.054 C 
ATOM     25  C   UNL     1       2.873  -2.525   0.000  0.00  0.00    +0.024 C 
ENDBRANCH   5   4
ENDBRANCH   7   6
TORSDOF 2