REMARK  Name = NSC 236580
REMARK  14 active torsions:
REMARK  status: ('A' for Active; 'I' for Inactive)
REMARK    1  A    between atoms: C_5  and  C_40
REMARK    2  A    between atoms: N_7  and  C_38
REMARK    3  A    between atoms: C_8  and  C_35
REMARK    4  A    between atoms: N_10  and  C_33
REMARK    5  A    between atoms: C_11  and  C_32
REMARK    6  A    between atoms: C_20  and  C_21
REMARK    7  A    between atoms: C_21  and  C_22
REMARK    8  A    between atoms: C_22  and  C_23
REMARK    9  A    between atoms: C_22  and  C_24
REMARK   10  A    between atoms: C_35  and  C_36
REMARK   11  A    between atoms: C_35  and  C_37
REMARK   12  A    between atoms: C_40  and  C_41
REMARK   13  A    between atoms: C_40  and  C_42
REMARK   14  A    between atoms: C_42  and  C_43
REMARK                            x       y       z     vdW  Elec       q    Type
REMARK                         _______ _______ _______ _____ _____    ______ ____
ROOT
ATOM      1  O   UNL     1      -1.228  10.524   0.000  0.00  0.00    -0.274 OA
ATOM      2  C   UNL     1      -2.700  10.811   0.000  0.00  0.00    +0.234 C 
ATOM      3  N   UNL     1      -2.659  12.311   0.000  0.00  0.00    -0.302 N 
ATOM      4  H   UNL     1      -1.173  12.517   0.000  0.00  0.00    +0.150 HD
ATOM      5  C   UNL     1      -3.106  13.743   0.000  0.00  0.00    +0.162 C 
ATOM      6  C   UNL     1      -3.994  14.951   0.000  0.00  0.00    +0.237 C 
ATOM      7  N   UNL     1      -5.227  15.806   0.000  0.00  0.00    -0.291 N 
ATOM      8  C   UNL     1      -6.670  16.214   0.000  0.00  0.00    +0.164 C 
ATOM      9  C   UNL     1      -8.168  16.132   0.000  0.00  0.00    +0.237 C 
ATOM     10  N   UNL     1      -9.558  15.567   0.000  0.00  0.00    -0.292 N 
ATOM     11  C   UNL     1     -10.689  14.582   0.000  0.00  0.00    +0.158 C 
ATOM     12  C   UNL     1     -11.439  13.283   0.000  0.00  0.00    +0.233 C 
ATOM     13  N   UNL     1     -11.727  11.811   0.000  0.00  0.00    -0.313 N 
ATOM     14  H   UNL     1     -13.226  11.852   0.000  0.00  0.00    +0.149 HD
ATOM     15  C   UNL     1     -11.521  10.325   0.000  0.00  0.00    +0.115 C 
ATOM     16  C   UNL     1     -10.844   8.987   0.000  0.00  0.00    +0.139 C 
ATOM     17  C   UNL     1      -9.769   7.941   0.000  0.00  0.00    +0.309 C 
ATOM     18  O   UNL     1     -10.623   6.708   0.000  0.00  0.00    -0.251 OA
ATOM     19  O   UNL     1      -8.412   7.301   0.000  0.00  0.00    -0.452 OA
ATOM     20  C   UNL     1      -6.921   7.135   0.000  0.00  0.00    +0.262 C 
ATOM     25  C   UNL     1      -5.457   7.463   0.000  0.00  0.00    +0.257 C 
ATOM     26  O   UNL     1      -4.893   6.074   0.000  0.00  0.00    -0.272 OA
ATOM     27  N   UNL     1      -4.180   8.249   0.000  0.00  0.00    -0.287 N 
ATOM     28  C   UNL     1      -3.373   6.984   0.000  0.00  0.00    +0.109 C 
ATOM     29  C   UNL     1      -1.921   7.360   0.000  0.00  0.00    +0.021 C 
ATOM     30  C   UNL     1      -1.830   8.857   0.000  0.00  0.00    +0.033 C 
ATOM     31  O   UNL     1     -12.844  13.809   0.000  0.00  0.00    -0.274 OA
ATOM     32  C   UNL     1     -11.847  15.536   0.000  0.00  0.00    +0.038 C 
ATOM     33  C   UNL     1     -10.344  16.845   0.000  0.00  0.00    +0.133 C 
ATOM     34  O   UNL     1      -8.496  17.595   0.000  0.00  0.00    -0.274 OA
ATOM     38  C   UNL     1      -4.587  17.163   0.000  0.00  0.00    +0.133 C 
ATOM     39  O   UNL     1      -2.949  16.026   0.000  0.00  0.00    -0.274 OA
ATOM     44  C   UNL     1      -3.226   9.407   0.000  0.00  0.00    +0.162 C 
ENDROOT
BRANCH   8  35
ATOM     35  C   UNL     1      -6.505  17.705   0.000  0.00  0.00    +0.012 C 
ATOM     36  C   UNL     1      -5.132  18.308   0.000  0.00  0.00    +0.009 C 
ATOM     37  C   UNL     1      -7.714  18.593   0.000  0.00  0.00    +0.009 C 
ENDBRANCH   8  35
BRANCH   5  40
ATOM     40  C   UNL     1      -1.768  14.420   0.000  0.00  0.00    +0.015 C 
ATOM     41  C   UNL     1      -1.685  15.918   0.000  0.00  0.00    +0.010 C 
BRANCH  40  42
ATOM     42  C   UNL     1      -0.512  13.599   0.000  0.00  0.00    +0.002 C 
ATOM     43  C   UNL     1       0.826  14.277   0.000  0.00  0.00    +0.004 C 
ENDBRANCH  40  42
ENDBRANCH   5  40
BRANCH  20  21
ATOM     21  C   UNL     1      -6.839   5.638   0.000  0.00  0.00    +0.057 C 
BRANCH  21  22
ATOM     22  C   UNL     1      -8.094   4.817   0.000  0.00  0.00    -0.013 C 
ATOM     23  C   UNL     1      -9.433   5.495   0.000  0.00  0.00    +0.007 C 
ATOM     24  C   UNL     1      -8.012   3.320   0.000  0.00  0.00    +0.007 C 
ENDBRANCH  21  22
ENDBRANCH  20  21
TORSDOF 5