REMARK  Name = NSC 256942#1
REMARK  13 active torsions:
REMARK  status: ('A' for Active; 'I' for Inactive)
REMARK    1  A    between atoms: C_7  and  O_8
REMARK    2  A    between atoms: C_11  and  O_12
REMARK    3  A    between atoms: C_11  and  C_13
REMARK    4  A    between atoms: C_13  and  C_15
REMARK    5  A    between atoms: C_15  and  O_16
REMARK    6  A    between atoms: C_18  and  O_19
REMARK    7  A    between atoms: O_19  and  C_20
REMARK    8  A    between atoms: C_22  and  N_23
REMARK    9  A    between atoms: C_24  and  O_25
REMARK   10  A    between atoms: C_26  and  C_27
REMARK   11  A    between atoms: C_30  and  O_31
REMARK   12  A    between atoms: C_36  and  O_37
REMARK   13  A    between atoms: O_37  and  C_38
REMARK                            x       y       z     vdW  Elec       q    Type
REMARK                         _______ _______ _______ _____ _____    ______ ____
ROOT
ATOM      1  C   UNL     1       0.750   7.793   0.000  0.00  0.00    +0.004 A 
ATOM      2  C   UNL     1       2.049   8.543   0.000  0.00  0.00    +0.012 A 
ATOM      3  C   UNL     1       3.348   7.793   0.000  0.00  0.00    +0.037 A 
ATOM      4  C   UNL     1       4.647   8.543   0.000  0.00  0.00    +0.198 C 
ATOM      5  O   UNL     1       4.647  10.043   0.000  0.00  0.00    -0.286 OA
ATOM      6  C   UNL     1       5.946   7.793   0.000  0.00  0.00    +0.078 A 
ATOM      7  C   UNL     1       7.245   8.543   0.000  0.00  0.00    +0.132 A 
ATOM     10  C   UNL     1       8.544   7.793   0.000  0.00  0.00    +0.007 A 
ATOM     11  C   UNL     1       9.843   8.543   0.000  0.00  0.00    +0.082 C 
ATOM     12  C   UNL     1      11.142   7.793   0.000  0.00  0.00    +0.133 C 
ATOM     20  C   UNL     1      11.142   6.293   0.000  0.00  0.00    +0.079 C 
ATOM     21  C   UNL     1       9.843   5.543   0.000  0.00  0.00    +0.158 C 
ATOM     35  C   UNL     1       8.544   6.293   0.000  0.00  0.00    +0.030 A 
ATOM     36  C   UNL     1       7.245   5.543   0.000  0.00  0.00    +0.134 A 
ATOM     39  C   UNL     1       5.946   6.293   0.000  0.00  0.00    +0.078 A 
ATOM     40  C   UNL     1       4.647   5.543   0.000  0.00  0.00    +0.202 C 
ATOM     41  O   UNL     1       4.647   4.043   0.000  0.00  0.00    -0.286 OA
ATOM     42  C   UNL     1       3.348   6.293   0.000  0.00  0.00    +0.075 A 
ATOM     43  C   UNL     1       2.049   5.543   0.000  0.00  0.00    +0.132 A 
ATOM     46  C   UNL     1       0.750   6.293   0.000  0.00  0.00    +0.046 A 
ENDROOT
BRANCH   7   8
ATOM      8  O   UNL     1       7.245  10.043   0.000  0.00  0.00    -0.506 OA
ATOM      9  H   UNL     1       8.057  10.511   0.000  0.00  0.00    +0.292 HD
ENDBRANCH   7   8
BRANCH  12  13
ATOM     13  O   UNL     1      11.655   9.202   0.000  0.00  0.00    -0.381 OA
ATOM     14  H   UNL     1      12.611   9.371   0.000  0.00  0.00    +0.211 HD
ENDBRANCH  12  13
BRANCH  12  15
ATOM     15  C   UNL     1      12.620   7.532   0.000  0.00  0.00    +0.190 C 
ATOM     16  O   UNL     1      13.133   6.123   0.000  0.00  0.00    -0.292 OA
BRANCH  15  17
ATOM     17  C   UNL     1      13.584   8.681   0.000  0.00  0.00    +0.233 C 
BRANCH  17  18
ATOM     18  O   UNL     1      15.061   8.421   0.000  0.00  0.00    -0.387 OA
ATOM     19  H   UNL     1      15.393   7.509   0.000  0.00  0.00    +0.210 HD
ENDBRANCH  17  18
ENDBRANCH  15  17
ENDBRANCH  12  15
BRANCH  36  37
ATOM     37  O   UNL     1       7.245   4.043   0.000  0.00  0.00    -0.506 OA
ATOM     38  H   UNL     1       6.434   3.574   0.000  0.00  0.00    +0.292 HD
ENDBRANCH  36  37
BRANCH  43  44
ATOM     44  O   UNL     1       2.049   4.043   0.000  0.00  0.00    -0.494 OA
ATOM     45  C   UNL     1       0.750   3.293   0.000  0.00  0.00    +0.277 C 
ENDBRANCH  43  44
BRANCH  21  22
ATOM     22  O   UNL     1       9.843   4.043   0.000  0.00  0.00    -0.343 OA
BRANCH  22  23
ATOM     23  C   UNL     1      11.142   3.293   0.000  0.00  0.00    +0.253 C 
ATOM     24  C   UNL     1      12.666   1.477   0.000  0.00  0.00    +0.082 C 
ATOM     25  C   UNL     1      13.965   2.227   0.000  0.00  0.00    +0.087 C 
ATOM     29  C   UNL     1      15.678   1.925   0.000  0.00  0.00    +0.160 C 
ATOM     32  C   UNL     1      14.155   3.741   0.000  0.00  0.00    +0.148 C 
ATOM     33  C   UNL     1      14.415   5.218   0.000  0.00  0.00    +0.041 C 
ATOM     34  O   UNL     1      12.856   2.991   0.000  0.00  0.00    -0.346 OA
BRANCH  25  26
ATOM     26  N   UNL     1      14.225   0.750   0.000  0.00  0.00    -0.325 NA
ATOM     27  H   UNL     1      15.184   0.401   0.000  0.00  0.00    +0.119 HD
ATOM     28  H   UNL     1      13.444   0.094   0.000  0.00  0.00    +0.119 HD
ENDBRANCH  25  26
BRANCH  29  30
ATOM     30  O   UNL     1      16.977   1.175   0.000  0.00  0.00    -0.388 OA
ATOM     31  H   UNL     1      16.977   0.205   0.000  0.00  0.00    +0.210 HD
ENDBRANCH  29  30
ENDBRANCH  22  23
ENDBRANCH  21  22
TORSDOF 11