REMARK  Name = NSC 19038
REMARK  12 active torsions:
REMARK  status: ('A' for Active; 'I' for Inactive)
REMARK    1  A    between atoms: C_1  and  O_2
REMARK    2  A    between atoms: O_2  and  C_3
REMARK    3  A    between atoms: C_5  and  O_6
REMARK    4  A    between atoms: O_6  and  C_7
REMARK    5  A    between atoms: C_8  and  O_9
REMARK    6  A    between atoms: O_9  and  C_10
REMARK    7  A    between atoms: C_11  and  O_12
REMARK    8  A    between atoms: C_13  and  C_14
REMARK    9  A    between atoms: C_14  and  C_15
REMARK   10  A    between atoms: C_16  and  C_17
REMARK   11  A    between atoms: C_20  and  O_21
REMARK   12  A    between atoms: O_21  and  C_22
REMARK                            x       y       z     vdW  Elec       q    Type
REMARK                         _______ _______ _______ _____ _____    ______ ____
ROOT
ATOM      1  C   UNL     1     -12.441  -3.000   0.000  0.00  0.00    +0.138 A 
ATOM      4  C   UNL     1     -13.740  -3.750   0.000  0.00  0.00    +0.096 A 
ATOM      5  C   UNL     1     -13.740  -5.250   0.000  0.00  0.00    +0.169 A 
ATOM      8  C   UNL     1     -12.441  -6.000   0.000  0.00  0.00    +0.204 A 
ATOM     11  C   UNL     1     -11.142  -5.250   0.000  0.00  0.00    +0.177 A 
ATOM     14  C   UNL     1     -11.142  -3.750   0.000  0.00  0.00    +0.108 A 
ENDROOT
BRANCH   1   2
ATOM      2  O   UNL     1     -12.441  -1.500   0.000  0.00  0.00    -0.494 OA
ATOM      3  C   UNL     1     -13.740  -0.750   0.000  0.00  0.00    +0.277 C 
ENDBRANCH   1   2
BRANCH   5   6
ATOM      6  O   UNL     1     -15.039  -6.000   0.000  0.00  0.00    -0.491 OA
ATOM      7  C   UNL     1     -16.339  -5.250   0.000  0.00  0.00    +0.277 C 
ENDBRANCH   5   6
BRANCH   8   9
ATOM      9  O   UNL     1     -12.441  -7.500   0.000  0.00  0.00    -0.488 OA
ATOM     10  C   UNL     1     -13.740  -8.250   0.000  0.00  0.00    +0.277 C 
ENDBRANCH   8   9
BRANCH  11  12
ATOM     12  O   UNL     1      -9.843  -6.000   0.000  0.00  0.00    -0.503 OA
ATOM     13  H   UNL     1      -9.843  -6.937   0.000  0.00  0.00    +0.292 HD
ENDBRANCH  11  12
BRANCH  14  15
ATOM     15  C   UNL     1      -9.843  -3.000   0.000  0.00  0.00    +0.193 C 
ATOM     26  O   UNL     1      -9.843  -1.500   0.000  0.00  0.00    -0.287 OA
BRANCH  15  16
ATOM     16  C   UNL     1      -8.544  -3.750   0.000  0.00  0.00    +0.052 C 
ATOM     17  C   UNL     1      -7.245  -3.000   0.000  0.00  0.00    +0.012 C 
BRANCH  17  18
ATOM     18  C   UNL     1      -5.946  -3.750   0.000  0.00  0.00    -0.025 A 
ATOM     19  C   UNL     1      -5.946  -5.250   0.000  0.00  0.00    +0.011 A 
ATOM     20  C   UNL     1      -4.647  -6.000   0.000  0.00  0.00    +0.046 A 
ATOM     21  C   UNL     1      -3.348  -5.250   0.000  0.00  0.00    +0.120 A 
ATOM     24  C   UNL     1      -3.348  -3.750   0.000  0.00  0.00    +0.046 A 
ATOM     25  C   UNL     1      -4.647  -3.000   0.000  0.00  0.00    +0.011 A 
BRANCH  21  22
ATOM     22  O   UNL     1      -2.049  -6.000   0.000  0.00  0.00    -0.495 OA
ATOM     23  C   UNL     1      -0.750  -5.250   0.000  0.00  0.00    +0.277 C 
ENDBRANCH  21  22
ENDBRANCH  17  18
ENDBRANCH  15  16
ENDBRANCH  14  15
TORSDOF 8