REMARK  Name = NSC 20264
REMARK  8 active torsions:
REMARK  status: ('A' for Active; 'I' for Inactive)
REMARK    1  A    between atoms: C_2  and  N_3
REMARK    2  A    between atoms: C_13  and  O_14
REMARK    3  A    between atoms: C_15  and  O_16
REMARK    4  A    between atoms: C_17  and  C_18
REMARK    5  A    between atoms: C_18  and  O_19
REMARK    6  A    between atoms: O_19  and  P_20
REMARK    7  A    between atoms: P_20  and  O_21
REMARK    8  A    between atoms: P_20  and  O_22
REMARK                            x       y       z     vdW  Elec       q    Type
REMARK                         _______ _______ _______ _____ _____    ______ ____
ROOT
ATOM      1  O   UNL     1       1.141   8.165   0.000  0.00  0.00    -0.346 OA
ATOM      2  C   UNL     1       2.567   7.702   0.000  0.00  0.00    +0.253 C 
ATOM     15  C   UNL     1       2.567   6.202   0.000  0.00  0.00    +0.195 C 
ATOM     18  C   UNL     1       1.141   5.738   0.000  0.00  0.00    +0.178 C 
ATOM     21  C   UNL     1       0.259   6.952   0.000  0.00  0.00    +0.178 C 
ENDROOT
BRANCH   2   3
ATOM      3  N   UNL     1       3.781   8.583   0.000  0.00  0.00    -0.286 N 
ATOM      4  C   UNL     1       3.781  10.083   0.000  0.00  0.00    +0.167 A 
ATOM      5  N   UNL     1       2.666  11.087   0.000  0.00  0.00    -0.216 NA
ATOM      6  C   UNL     1       2.978  12.554   0.000  0.00  0.00    +0.225 A 
ATOM      7  N   UNL     1       4.405  13.018   0.000  0.00  0.00    -0.219 NA
ATOM      8  C   UNL     1       5.519  12.014   0.000  0.00  0.00    +0.147 A 
ATOM      9  N   UNL     1       6.946  12.477   0.000  0.00  0.00    -0.341 N 
ATOM     10  H   UNL     1       7.151  13.440   0.000  0.00  0.00    +0.144 HD
ATOM     11  H   UNL     1       7.678  11.819   0.000  0.00  0.00    +0.144 HD
ATOM     12  C   UNL     1       5.207  10.547   0.000  0.00  0.00    +0.147 A 
ATOM     13  N   UNL     1       6.089   9.333   0.000  0.00  0.00    -0.231 NA
ATOM     14  C   UNL     1       5.207   8.120   0.000  0.00  0.00    +0.203 A 
ENDBRANCH   2   3
BRANCH  15  16
ATOM     16  O   UNL     1       3.781   5.320   0.000  0.00  0.00    -0.385 OA
ATOM     17  H   UNL     1       3.679   4.355   0.000  0.00  0.00    +0.210 HD
ENDBRANCH  15  16
BRANCH  18  19
ATOM     19  O   UNL     1       0.677   4.311   0.000  0.00  0.00    -0.386 OA
ATOM     20  H   UNL     1      -0.272   4.110   0.000  0.00  0.00    +0.210 HD
ENDBRANCH  18  19
BRANCH  21  22
ATOM     22  C   UNL     1      -1.241   6.952   0.000  0.00  0.00    +0.206 C 
BRANCH  22  23
ATOM     23  O   UNL     1      -1.991   5.652   0.000  0.00  0.00    -0.284 OA
BRANCH  23  24
ATOM     24  P   UNL     1      -3.491   5.652   0.000  0.00  0.00    +0.472 P 
ATOM     29  O   UNL     1      -4.991   5.652   0.000  0.00  0.00    -0.228 OA
BRANCH  24  25
ATOM     25  O   UNL     1      -3.491   4.152   0.000  0.00  0.00    -0.303 OA
ATOM     26  H   UNL     1      -4.331   3.668   0.000  0.00  0.00    +0.222 HD
ENDBRANCH  24  25
BRANCH  24  27
ATOM     27  O   UNL     1      -3.491   7.152   0.000  0.00  0.00    -0.303 OA
ATOM     28  H   UNL     1      -2.651   7.638   0.000  0.00  0.00    +0.222 HD
ENDBRANCH  24  27
ENDBRANCH  23  24
ENDBRANCH  22  23
ENDBRANCH  21  22
TORSDOF 8