REMARK  Name = NSC 209870
REMARK  17 active torsions:
REMARK  status: ('A' for Active; 'I' for Inactive)
REMARK    1  A    between atoms: C_3  and  C_4
REMARK    2  A    between atoms: C_6  and  C_7
REMARK    3  A    between atoms: C_6  and  O_8
REMARK    4  A    between atoms: C_9  and  O_10
REMARK    5  A    between atoms: C_11  and  C_12
REMARK    6  A    between atoms: C_13  and  O_26
REMARK    7  A    between atoms: C_14  and  C_15
REMARK    8  A    between atoms: C_19  and  C_20
REMARK    9  A    between atoms: C_20  and  C_21
REMARK   10  A    between atoms: C_22  and  C_23
REMARK   11  A    between atoms: C_24  and  O_25
REMARK   12  A    between atoms: O_26  and  C_27
REMARK   13  A    between atoms: C_29  and  C_30
REMARK   14  A    between atoms: C_29  and  O_31
REMARK   15  A    between atoms: C_32  and  O_33
REMARK   16  A    between atoms: C_34  and  C_35
REMARK   17  A    between atoms: C_37  and  C_38
REMARK                            x       y       z     vdW  Elec       q    Type
REMARK                         _______ _______ _______ _____ _____    ______ ____
ROOT
ATOM      1  O   UNL     1       0.275   4.024   0.000  0.00  0.00    -0.297 OA
ATOM      2  C   UNL     1       0.275   5.524   0.000  0.00  0.00    +0.141 C 
ATOM      3  C   UNL     1       1.573   6.274   0.000  0.00  0.00    +0.055 C 
ATOM      4  C   UNL     1       1.573   4.774   0.000  0.00  0.00    +0.015 C 
ATOM      5  C   UNL     1       2.873   5.524   0.000  0.00  0.00    +0.048 C 
ATOM      6  C   UNL     1       4.172   6.274   0.000  0.00  0.00    +0.090 C 
ATOM      7  C   UNL     1       4.685   4.865   0.000  0.00  0.00    +0.044 C 
ATOM     10  C   UNL     1       5.471   5.524   0.000  0.00  0.00    +0.151 C 
ATOM     13  C   UNL     1       6.770   6.274   0.000  0.00  0.00    +0.047 C 
ATOM     14  C   UNL     1       8.069   5.524   0.000  0.00  0.00    +0.013 C 
ATOM     15  C   UNL     1       6.770   7.774   0.000  0.00  0.00    +0.140 C 
ATOM     16  C   UNL     1       5.471   8.524   0.000  0.00  0.00    +0.124 C 
ATOM     17  C   UNL     1       5.471  10.025   0.000  0.00  0.00    +0.022 C 
ATOM     18  C   UNL     1       4.172   7.774   0.000  0.00  0.00    +0.313 C 
ATOM     19  O   UNL     1       4.172   9.274   0.000  0.00  0.00    -0.250 OA
ATOM     20  O   UNL     1       2.873   8.524   0.000  0.00  0.00    -0.461 OA
ATOM     21  C   UNL     1       1.573   7.774   0.000  0.00  0.00    +0.181 C 
ATOM     24  C   UNL     1       0.275   8.524   0.000  0.00  0.00    +0.056 C 
ATOM     25  C   UNL     1       0.275  10.025   0.000  0.00  0.00    +0.014 C 
ATOM     26  C   UNL     1      -1.025   7.774   0.000  0.00  0.00    +0.131 C 
ATOM     42  C   UNL     1      -1.025   6.274   0.000  0.00  0.00    +0.081 C 
ATOM     43  C   UNL     1      -2.324   5.524   0.000  0.00  0.00    +0.018 C 
ENDROOT
BRANCH   6   8
ATOM      8  O   UNL     1       3.659   4.865   0.000  0.00  0.00    -0.386 OA
ATOM      9  H   UNL     1       2.703   4.697   0.000  0.00  0.00    +0.210 HD
ENDBRANCH   6   8
BRANCH  10  11
ATOM     11  O   UNL     1       5.471   4.024   0.000  0.00  0.00    -0.389 OA
ATOM     12  H   UNL     1       4.631   3.539   0.000  0.00  0.00    +0.210 HD
ENDBRANCH  10  11
BRANCH  21  22
ATOM     22  C   UNL     1       1.573   9.274   0.000  0.00  0.00    +0.041 C 
ATOM     23  C   UNL     1       2.873  10.025   0.000  0.00  0.00    +0.007 C 
ENDBRANCH  21  22
BRANCH  26  27
ATOM     27  O   UNL     1      -2.324   8.524   0.000  0.00  0.00    -0.391 OA
ATOM     28  H   UNL     1      -2.324   9.494   0.000  0.00  0.00    +0.210 HD
ENDBRANCH  26  27
BRANCH  15  29
ATOM     29  O   UNL     1       8.069   8.524   0.000  0.00  0.00    -0.347 OA
BRANCH  29  30
ATOM     30  C   UNL     1       8.069  10.025   0.000  0.00  0.00    +0.254 C 
ATOM     31  C   UNL     1       9.368  10.775   0.000  0.00  0.00    +0.098 C 
ATOM     32  C   UNL     1       9.368  12.275   0.000  0.00  0.00    +0.096 C 
ATOM     33  C   UNL     1       9.881  13.684   0.000  0.00  0.00    +0.044 C 
ATOM     36  C   UNL     1       8.069  13.025   0.000  0.00  0.00    +0.174 C 
ATOM     39  C   UNL     1       6.770  12.275   0.000  0.00  0.00    +0.149 C 
ATOM     40  C   UNL     1       5.471  13.025   0.000  0.00  0.00    +0.041 C 
ATOM     41  O   UNL     1       6.770  10.775   0.000  0.00  0.00    -0.346 OA
BRANCH  32  34
ATOM     34  O   UNL     1      10.845  12.014   0.000  0.00  0.00    -0.386 OA
ATOM     35  H   UNL     1      11.177  11.103   0.000  0.00  0.00    +0.210 HD
ENDBRANCH  32  34
BRANCH  36  37
ATOM     37  O   UNL     1       8.069  14.525   0.000  0.00  0.00    -0.386 OA
ATOM     38  H   UNL     1       8.909  15.009   0.000  0.00  0.00    +0.210 HD
ENDBRANCH  36  37
ENDBRANCH  29  30
ENDBRANCH  15  29
TORSDOF 8