REMARK  Name = NSC 24819
REMARK  8 active torsions:
REMARK  status: ('A' for Active; 'I' for Inactive)
REMARK    1  A    between atoms: C_5  and  O_6
REMARK    2  A    between atoms: C_11  and  C_12
REMARK    3  A    between atoms: C_14  and  O_15
REMARK    4  A    between atoms: O_15  and  C_16
REMARK    5  A    between atoms: C_17  and  O_18
REMARK    6  A    between atoms: O_18  and  C_19
REMARK    7  A    between atoms: C_20  and  O_21
REMARK    8  A    between atoms: O_21  and  C_22
REMARK                            x       y       z     vdW  Elec       q    Type
REMARK                         _______ _______ _______ _____ _____    ______ ____
ROOT
ATOM      1  O   UNL     1      -8.016  10.708   0.000  0.00  0.00    -0.452 OA
ATOM      2  C   UNL     1      -8.016  12.208   0.000  0.00  0.00    +0.467 C 
ATOM      3  O   UNL     1      -6.589  12.671   0.000  0.00  0.00    -0.449 OA
ATOM      4  C   UNL     1      -5.708  11.458   0.000  0.00  0.00    +0.208 A 
ATOM      5  C   UNL     1      -4.216  11.301   0.000  0.00  0.00    +0.166 A 
ATOM      8  C   UNL     1      -3.606   9.931   0.000  0.00  0.00    +0.002 A 
ATOM      9  C   UNL     1      -2.114   9.774   0.000  0.00  0.00    +0.047 C 
ATOM     10  C   UNL     1      -1.504   8.403   0.000  0.00  0.00    +0.046 C 
ATOM     11  C   UNL     1      -2.386   7.190   0.000  0.00  0.00    +0.116 C 
ATOM     12  C   UNL     1      -3.877   7.347   0.000  0.00  0.00    +0.064 C 
ATOM     25  C   UNL     1      -1.504   5.976   0.000  0.00  0.00    +0.312 C 
ATOM     26  O   UNL     1      -1.967   4.550   0.000  0.00  0.00    -0.250 OA
ATOM     27  O   UNL     1      -0.077   6.440   0.000  0.00  0.00    -0.464 OA
ATOM     28  C   UNL     1      -0.077   7.940   0.000  0.00  0.00    +0.236 C 
ATOM     29  C   UNL     1      -4.487   8.717   0.000  0.00  0.00    -0.029 A 
ATOM     30  C   UNL     1      -5.979   8.874   0.000  0.00  0.00    +0.054 A 
ATOM     31  C   UNL     1      -6.589  10.244   0.000  0.00  0.00    +0.170 A 
ENDROOT
BRANCH  12  13
ATOM     13  C   UNL     1      -4.759   6.133   0.000  0.00  0.00    -0.032 A 
ATOM     14  C   UNL     1      -6.251   6.290   0.000  0.00  0.00    +0.054 A 
ATOM     15  C   UNL     1      -7.133   5.076   0.000  0.00  0.00    +0.165 A 
ATOM     18  C   UNL     1      -6.522   3.706   0.000  0.00  0.00    +0.204 A 
ATOM     21  C   UNL     1      -5.031   3.549   0.000  0.00  0.00    +0.165 A 
ATOM     24  C   UNL     1      -4.149   4.763   0.000  0.00  0.00    +0.054 A 
BRANCH  15  16
ATOM     16  O   UNL     1      -8.624   5.233   0.000  0.00  0.00    -0.491 OA
ATOM     17  C   UNL     1      -9.234   6.604   0.000  0.00  0.00    +0.277 C 
ENDBRANCH  15  16
BRANCH  18  19
ATOM     19  O   UNL     1      -7.404   2.493   0.000  0.00  0.00    -0.488 OA
ATOM     20  C   UNL     1      -8.896   2.649   0.000  0.00  0.00    +0.277 C 
ENDBRANCH  18  19
BRANCH  21  22
ATOM     22  O   UNL     1      -4.420   2.179   0.000  0.00  0.00    -0.491 OA
ATOM     23  C   UNL     1      -2.929   2.022   0.000  0.00  0.00    +0.277 C 
ENDBRANCH  21  22
ENDBRANCH  12  13
BRANCH   5   6
ATOM      6  O   UNL     1      -3.334  12.514   0.000  0.00  0.00    -0.503 OA
ATOM      7  H   UNL     1      -2.402  12.416   0.000  0.00  0.00    +0.292 HD
ENDBRANCH   5   6
TORSDOF 5