REMARK  Name = NSC 250682
REMARK  6 active torsions:
REMARK  status: ('A' for Active; 'I' for Inactive)
REMARK    1  A    between atoms: C_1  and  C_2
REMARK    2  A    between atoms: C_1  and  C_3
REMARK    3  A    between atoms: C_8  and  O_9
REMARK    4  A    between atoms: C_11  and  O_12
REMARK    5  A    between atoms: C_21  and  O_22
REMARK    6  A    between atoms: C_26  and  O_27
REMARK                            x       y       z     vdW  Elec       q    Type
REMARK                         _______ _______ _______ _____ _____    ______ ____
ROOT
ATOM      1  C   UNL     1      -2.856  -2.025   0.000  0.00  0.00    -0.029 C 
ATOM      2  C   UNL     1      -2.290  -3.006   0.000  0.00  0.00    +0.011 C 
ATOM      3  C   UNL     1      -3.423  -2.998   0.000  0.00  0.00    +0.011 C 
ATOM      4  C   UNL     1      -1.506  -1.285   0.000  0.00  0.00    +0.040 C 
ATOM      5  C   UNL     1      -1.506   0.325   0.000  0.00  0.00    +0.030 C 
ATOM      6  C   UNL     1      -0.236   0.115   0.000  0.00  0.00    +0.173 C 
ATOM      7  O   UNL     1      -0.236  -0.835   0.000  0.00  0.00    -0.345 OA
ATOM      8  C   UNL     1       1.184  -1.285   0.000  0.00  0.00    +0.210 C 
ATOM     11  C   UNL     1       1.164   0.355   0.000  0.00  0.00    +0.119 C 
ATOM     12  C   UNL     1       2.486   1.118   0.000  0.00  0.00    +0.141 C 
ATOM     15  C   UNL     1       2.486   2.645   0.000  0.00  0.00    +0.052 C 
ATOM     16  C   UNL     1       3.760   1.910   0.000  0.00  0.00    -0.006 C 
ATOM     17  C   UNL     1       4.781   2.183   0.000  0.00  0.00    +0.016 C 
ATOM     18  C   UNL     1       1.152   3.415   0.000  0.00  0.00    +0.011 C 
ATOM     19  C   UNL     1      -0.156   2.660   0.000  0.00  0.00    +0.006 C 
ATOM     20  C   UNL     1       2.438  -0.380   0.000  0.00  0.00    +0.173 C 
ATOM     21  O   UNL     1       3.340  -0.901   0.000  0.00  0.00    -0.292 OA
ATOM     22  C   UNL     1      -2.856   1.085   0.000  0.00  0.00    +0.124 C 
ATOM     25  C   UNL     1      -4.226   0.355   0.000  0.00  0.00    +0.032 C 
ATOM     26  C   UNL     1      -0.156   1.085   0.000  0.00  0.00    +0.022 C 
ATOM     27  C   UNL     1      -0.186  -1.995   0.000  0.00  0.00    +0.179 C 
ATOM     30  C   UNL     1      -4.226  -1.285   0.000  0.00  0.00    +0.009 C 
ENDROOT
BRANCH   8   9
ATOM      9  O   UNL     1       2.120  -1.825   0.000  0.00  0.00    -0.362 OA
ATOM     10  H   UNL     1       2.120  -2.795   0.000  0.00  0.00    +0.213 HD
ENDBRANCH   8   9
BRANCH  12  13
ATOM     13  O   UNL     1       1.729   2.429   0.000  0.00  0.00    -0.390 OA
ATOM     14  H   UNL     1       2.214   3.269   0.000  0.00  0.00    +0.210 HD
ENDBRANCH  12  13
BRANCH  22  23
ATOM     23  O   UNL     1      -2.852   2.405   0.000  0.00  0.00    -0.391 OA
ATOM     24  H   UNL     1      -2.011   2.887   0.000  0.00  0.00    +0.210 HD
ENDBRANCH  22  23
BRANCH  27  28
ATOM     28  O   UNL     1      -0.186  -3.155   0.000  0.00  0.00    -0.386 OA
ATOM     29  H   UNL     1      -1.026  -3.640   0.000  0.00  0.00    +0.210 HD
ENDBRANCH  27  28
TORSDOF 4