REMARK  Name = NSC 248605
REMARK  17 active torsions:
REMARK  status: ('A' for Active; 'I' for Inactive)
REMARK    1  A    between atoms: C_1  and  C_2
REMARK    2  A    between atoms: C_2  and  O_3
REMARK    3  A    between atoms: C_2  and  C_7
REMARK    4  A    between atoms: O_3  and  C_4
REMARK    5  A    between atoms: C_4  and  C_6
REMARK    6  A    between atoms: C_8  and  O_9
REMARK    7  A    between atoms: C_8  and  C_55
REMARK    8  A    between atoms: C_18  and  O_19
REMARK    9  A    between atoms: C_21  and  C_22
REMARK   10  A    between atoms: C_23  and  O_24
REMARK   11  A    between atoms: C_33  and  C_39
REMARK   12  A    between atoms: C_34  and  O_35
REMARK   13  A    between atoms: C_34  and  C_38
REMARK   14  A    between atoms: C_39  and  O_40
REMARK   15  A    between atoms: C_39  and  C_44
REMARK   16  A    between atoms: O_40  and  C_41
REMARK   17  A    between atoms: C_41  and  C_43
REMARK                            x       y       z     vdW  Elec       q    Type
REMARK                         _______ _______ _______ _____ _____    ______ ____
ROOT
ATOM      7  C   UNL     1      -0.924  -8.899   0.000  0.00  0.00    +0.096 C 
ATOM      8  C   UNL     1       0.375  -9.649   0.000  0.00  0.00    +0.081 C 
ATOM     11  C   UNL     1       0.375 -11.150   0.000  0.00  0.00    +0.115 C 
ATOM     12  C   UNL     1      -0.924 -11.900   0.000  0.00  0.00    +0.170 C 
ATOM     13  O   UNL     1      -0.924 -13.400   0.000  0.00  0.00    -0.292 OA
ATOM     14  C   UNL     1      -2.223 -11.150   0.000  0.00  0.00    +0.072 C 
ATOM     15  C   UNL     1      -3.522 -11.900   0.000  0.00  0.00    +0.201 C 
ATOM     16  O   UNL     1      -3.522 -13.400   0.000  0.00  0.00    -0.286 OA
ATOM     17  C   UNL     1      -4.821 -11.150   0.000  0.00  0.00    +0.075 A 
ATOM     18  C   UNL     1      -6.120 -11.900   0.000  0.00  0.00    +0.136 A 
ATOM     21  C   UNL     1      -7.419 -11.150   0.000  0.00  0.00    +0.028 A 
ATOM     50  C   UNL     1      -7.419  -9.650   0.000  0.00  0.00    +0.013 A 
ATOM     51  C   UNL     1      -6.120  -8.900   0.000  0.00  0.00    +0.013 A 
ATOM     52  C   UNL     1      -4.821  -9.650   0.000  0.00  0.00    +0.036 A 
ATOM     53  C   UNL     1      -3.522  -8.900   0.000  0.00  0.00    +0.191 C 
ATOM     54  O   UNL     1      -3.522  -7.400   0.000  0.00  0.00    -0.287 OA
ATOM     55  C   UNL     1       0.888  -8.240   0.000  0.00  0.00    +0.042 C 
ATOM     56  C   UNL     1      -2.223  -9.649   0.000  0.00  0.00    +0.023 C 
ENDROOT
BRANCH  21  22
ATOM     22  C   UNL     1      -8.718 -11.900   0.000  0.00  0.00    +0.028 A 
ATOM     23  C   UNL     1     -10.017 -11.150   0.000  0.00  0.00    +0.136 A 
ATOM     26  C   UNL     1     -11.316 -11.900   0.000  0.00  0.00    +0.075 A 
ATOM     27  C   UNL     1     -12.615 -11.150   0.000  0.00  0.00    +0.201 C 
ATOM     28  O   UNL     1     -12.615  -9.650   0.000  0.00  0.00    -0.286 OA
ATOM     29  C   UNL     1     -13.914 -11.900   0.000  0.00  0.00    +0.072 C 
ATOM     30  C   UNL     1     -13.914 -13.400   0.000  0.00  0.00    +0.023 C 
ATOM     31  C   UNL     1     -12.615 -14.150   0.000  0.00  0.00    +0.191 C 
ATOM     32  O   UNL     1     -12.615 -15.650   0.000  0.00  0.00    -0.287 OA
ATOM     33  C   UNL     1     -15.213 -14.150   0.000  0.00  0.00    +0.096 C 
ATOM     34  C   UNL     1     -16.512 -13.400   0.000  0.00  0.00    +0.081 C 
ATOM     37  C   UNL     1     -16.512 -11.900   0.000  0.00  0.00    +0.115 C 
ATOM     38  C   UNL     1     -17.026 -14.809   0.000  0.00  0.00    +0.042 C 
ATOM     45  C   UNL     1     -15.213 -11.150   0.000  0.00  0.00    +0.170 C 
ATOM     46  O   UNL     1     -15.213  -9.650   0.000  0.00  0.00    -0.292 OA
ATOM     47  C   UNL     1     -11.316 -13.400   0.000  0.00  0.00    +0.036 A 
ATOM     48  C   UNL     1     -10.017 -14.150   0.000  0.00  0.00    +0.013 A 
ATOM     49  C   UNL     1      -8.718 -13.400   0.000  0.00  0.00    +0.013 A 
BRANCH  23  24
ATOM     24  O   UNL     1     -10.017  -9.650   0.000  0.00  0.00    -0.505 OA
ATOM     25  H   UNL     1     -11.316  -8.900   0.000  0.00  0.00    +0.292 HD
ENDBRANCH  23  24
BRANCH  34  35
ATOM     35  O   UNL     1     -17.990 -13.139   0.000  0.00  0.00    -0.388 OA
ATOM     36  H   UNL     1     -18.503 -11.730   0.000  0.00  0.00    +0.210 HD
ENDBRANCH  34  35
BRANCH  33  39
ATOM     39  C   UNL     1     -15.213 -15.650   0.000  0.00  0.00    +0.184 C 
ATOM     44  C   UNL     1     -13.914 -16.400   0.000  0.00  0.00    +0.053 C 
BRANCH  39  40
ATOM     40  O   UNL     1     -16.512 -16.400   0.000  0.00  0.00    -0.461 OA
BRANCH  40  41
ATOM     41  C   UNL     1     -16.512 -17.900   0.000  0.00  0.00    +0.304 C 
ATOM     42  O   UNL     1     -15.213 -18.650   0.000  0.00  0.00    -0.251 OA
ATOM     43  C   UNL     1     -17.811 -18.650   0.000  0.00  0.00    +0.136 C 
ENDBRANCH  40  41
ENDBRANCH  39  40
ENDBRANCH  33  39
ENDBRANCH  21  22
BRANCH   7   2
ATOM      1  C   UNL     1      -2.223  -6.649   0.000  0.00  0.00    +0.053 C 
ATOM      2  C   UNL     1      -0.924  -7.399   0.000  0.00  0.00    +0.184 C 
BRANCH   2   3
ATOM      3  O   UNL     1       0.375  -6.649   0.000  0.00  0.00    -0.461 OA
BRANCH   3   4
ATOM      4  C   UNL     1       0.375  -5.149   0.000  0.00  0.00    +0.304 C 
ATOM      5  O   UNL     1      -0.924  -4.399   0.000  0.00  0.00    -0.251 OA
ATOM      6  C   UNL     1       1.674  -4.399   0.000  0.00  0.00    +0.136 C 
ENDBRANCH   3   4
ENDBRANCH   2   3
ENDBRANCH   7   2
BRANCH   8   9
ATOM      9  O   UNL     1       1.852  -9.910   0.000  0.00  0.00    -0.388 OA
ATOM     10  H   UNL     1       2.365 -11.320   0.000  0.00  0.00    +0.210 HD
ENDBRANCH   8   9
BRANCH  18  19
ATOM     19  O   UNL     1      -6.120 -13.400   0.000  0.00  0.00    -0.505 OA
ATOM     20  H   UNL     1      -4.821 -14.150   0.000  0.00  0.00    +0.292 HD
ENDBRANCH  18  19
TORSDOF 11