REMARK  Name = 634503
REMARK  8 active torsions:
REMARK  status: ('A' for Active; 'I' for Inactive)
REMARK    1  A    between atoms: C_10  and  C_14
REMARK    2  A    between atoms: C_14  and  C_15
REMARK    3  A    between atoms: C_14  and  C_17
REMARK    4  A    between atoms: N_19  and  C_20
REMARK    5  A    between atoms: C_24  and  C_26
REMARK    6  A    between atoms: C_25  and  C_28
REMARK    7  A    between atoms: C_26  and  C_27
REMARK    8  A    between atoms: C_28  and  C_29
REMARK                            x       y       z     vdW  Elec       q    Type
REMARK                         _______ _______ _______ _____ _____    ______ ____
ROOT
ATOM      7  C   UNL     1      -7.245  -3.750   0.000  0.00  0.00    +0.212 C 
ENDROOT
BRANCH   7   6
ATOM      1  C   UNL     1     -12.441  -6.750   0.000  0.00  0.00    +0.012 A 
ATOM      2  C   UNL     1     -11.142  -6.000   0.000  0.00  0.00    +0.034 A 
ATOM      3  C   UNL     1      -9.843  -6.750   0.000  0.00  0.00    +0.205 C 
ATOM      4  C   UNL     1      -8.544  -6.000   0.000  0.00  0.00    +0.097 C 
ATOM      5 CL   UNL     1      -7.245  -6.750   0.000  0.00  0.00    -0.079 Cl
ATOM      6  C   UNL     1      -8.544  -4.500   0.000  0.00  0.00    +0.048 C 
ATOM     24  C   UNL     1      -9.843  -3.750   0.000  0.00  0.00    +0.193 C 
ATOM     25  O   UNL     1      -9.843  -2.250   0.000  0.00  0.00    -0.287 OA
ATOM     26  O   UNL     1      -9.843  -8.250   0.000  0.00  0.00    -0.286 OA
ATOM     27  C   UNL     1     -11.142  -4.500   0.000  0.00  0.00    +0.033 A 
ATOM     28  C   UNL     1     -12.441  -3.750   0.000  0.00  0.00    +0.012 A 
ATOM     29  C   UNL     1     -13.740  -4.500   0.000  0.00  0.00    +0.001 A 
ATOM     30  C   UNL     1     -13.740  -6.000   0.000  0.00  0.00    +0.001 A 
ENDBRANCH   7   6
BRANCH   7   8
ATOM      8  C   UNL     1      -5.946  -4.500   0.000  0.00  0.00    +0.239 C 
ATOM      9  N   UNL     1      -4.647  -3.750   0.000  0.00  0.00    -0.284 N 
ATOM     10  H   UNL     1      -4.647  -2.766   0.000  0.00  0.00    +0.155 HD
ATOM     21  O   UNL     1      -5.946  -6.000   0.000  0.00  0.00    -0.274 OA
BRANCH   9  11
ATOM     11  C   UNL     1      -3.348  -4.500   0.000  0.00  0.00    +0.040 A 
ATOM     12  C   UNL     1      -2.049  -3.750   0.000  0.00  0.00    -0.026 A 
ATOM     15  C   UNL     1      -0.750  -4.500   0.000  0.00  0.00    +0.005 A 
ATOM     16  C   UNL     1      -0.750  -6.000   0.000  0.00  0.00    +0.001 A 
ATOM     17  C   UNL     1      -2.049  -6.750   0.000  0.00  0.00    +0.005 A 
ATOM     18  C   UNL     1      -3.348  -6.000   0.000  0.00  0.00    -0.026 A 
BRANCH  12  13
ATOM     13  C   UNL     1      -2.049  -2.250   0.000  0.00  0.00    +0.033 C 
ATOM     14  C   UNL     1      -3.348  -1.500   0.000  0.00  0.00    +0.009 C 
ENDBRANCH  12  13
BRANCH  18  19
ATOM     19  C   UNL     1      -4.647  -6.750   0.000  0.00  0.00    +0.033 C 
ATOM     20  C   UNL     1      -4.647  -8.250   0.000  0.00  0.00    +0.009 C 
ENDBRANCH  18  19
ENDBRANCH   9  11
ENDBRANCH   7   8
BRANCH   7  22
ATOM     22  C   UNL     1      -7.245  -2.250   0.000  0.00  0.00    +0.080 C 
ATOM     23  N   UNL     1      -7.245  -0.750   0.000  0.00  0.00    -0.195 NA
ENDBRANCH   7  22
TORSDOF 6