REMARK  Name = 634658
REMARK  7 active torsions:
REMARK  status: ('A' for Active; 'I' for Inactive)
REMARK    1  A    between atoms: C_2  and  N_8
REMARK    2  A    between atoms: C_5  and  C_10
REMARK    3  A    between atoms: C_11  and  C_12
REMARK    4  A    between atoms: C_11  and  C_22
REMARK    5  A    between atoms: N_14  and  C_15
REMARK    6  A    between atoms: C_20  and  C_21
REMARK    7  A    between atoms: C_22  and  C_24
REMARK                            x       y       z     vdW  Elec       q    Type
REMARK                         _______ _______ _______ _____ _____    ______ ____
ROOT
ATOM      3  C   UNL     1      -8.544  -3.000   0.000  0.00  0.00    +0.024 C 
ATOM      4  C   UNL     1      -7.245  -3.750   0.000  0.00  0.00    +0.080 C 
ENDROOT
BRANCH   3   2
ATOM      1  C   UNL     1     -11.142  -3.000   0.000  0.00  0.00    +0.092 A 
ATOM      2  C   UNL     1      -9.843  -3.750   0.000  0.00  0.00    -0.018 A 
ATOM     19  C   UNL     1      -9.843  -5.250   0.000  0.00  0.00    +0.008 A 
ATOM     20  C   UNL     1     -11.142  -6.000   0.000  0.00  0.00    +0.007 A 
ATOM     21  C   UNL     1     -12.441  -5.250   0.000  0.00  0.00    +0.084 A 
ATOM     22  C   UNL     1     -12.441  -3.750   0.000  0.00  0.00    +0.274 A 
BRANCH  22  23
ATOM     23  N   UNL     1     -13.740  -3.000   0.000  0.00  0.00    +0.080 N 
ATOM     24  O   UNL     1     -15.039  -3.750   0.000  0.00  0.00    +0.041 OA
ATOM     25  O   UNL     1     -13.740  -1.500   0.000  0.00  0.00    -0.576 OA
ENDBRANCH  22  23
ENDBRANCH   3   2
BRANCH   4   8
ATOM      8  C   UNL     1      -5.946  -3.000   0.000  0.00  0.00    +0.252 C 
ATOM      9  N   UNL     1      -4.647  -3.750   0.000  0.00  0.00    -0.281 N 
ATOM     10  H   UNL     1      -4.647  -4.734   0.000  0.00  0.00    +0.155 HD
ATOM     18  O   UNL     1      -5.946  -1.500   0.000  0.00  0.00    -0.270 OA
BRANCH   9  11
ATOM     11  C   UNL     1      -3.348  -3.000   0.000  0.00  0.00    +0.037 A 
ATOM     12  C   UNL     1      -3.348  -1.500   0.000  0.00  0.00    -0.029 A 
ATOM     13  C   UNL     1      -4.647  -0.750   0.000  0.00  0.00    +0.045 C 
ATOM     14  C   UNL     1      -2.049  -0.750   0.000  0.00  0.00    +0.005 A 
ATOM     15  C   UNL     1      -0.750  -1.500   0.000  0.00  0.00    +0.000 A 
ATOM     16  C   UNL     1      -0.750  -3.000   0.000  0.00  0.00    +0.002 A 
ATOM     17  C   UNL     1      -2.049  -3.750   0.000  0.00  0.00    +0.023 A 
ENDBRANCH   9  11
ENDBRANCH   4   8
BRANCH   4   5
ATOM      5  C   UNL     1      -7.245  -5.250   0.000  0.00  0.00    +0.165 C 
ATOM      6  C   UNL     1      -5.946  -6.000   0.000  0.00  0.00    +0.092 C 
ATOM      7  O   UNL     1      -8.544  -6.000   0.000  0.00  0.00    -0.292 OA
ENDBRANCH   4   5
TORSDOF 5