REMARK  Name = 633001
REMARK  4 active torsions:
REMARK  status: ('A' for Active; 'I' for Inactive)
REMARK    1  A    between atoms: C_3  and  N_14
REMARK    2  A    between atoms: C_4  and  S_7
REMARK    3  A    between atoms: S_7  and  C_8
REMARK    4  A    between atoms: C_13  and  N_19
REMARK                            x       y       z     vdW  Elec       q    Type
REMARK                         _______ _______ _______ _____ _____    ______ ____
ROOT
ATOM      5  S   UNL     1      -5.524  -0.275   0.000  0.00  0.00    +0.038 S 
ATOM      6  O   UNL     1      -4.226   0.475   0.000  0.00  0.00    -0.164 OA
ATOM      7  O   UNL     1      -6.274   1.025   0.000  0.00  0.00    -0.164 OA
ENDROOT
BRANCH   5   4
ATOM      1  C   UNL     1      -9.422  -2.525   0.000  0.00  0.00    +0.007 A 
ATOM      2  C   UNL     1      -8.123  -3.275   0.000  0.00  0.00    +0.002 A 
ATOM      3  C   UNL     1      -6.824  -2.525   0.000  0.00  0.00    +0.034 A 
ATOM      4  C   UNL     1      -6.824  -1.025   0.000  0.00  0.00    +0.170 A 
ATOM     17  C   UNL     1      -8.123  -0.275   0.000  0.00  0.00    +0.298 A 
ATOM     21  C   UNL     1      -9.422  -1.025   0.000  0.00  0.00    +0.086 A 
BRANCH  17  18
ATOM     18  N   UNL     1      -8.123   1.226   0.000  0.00  0.00    +0.082 N 
ATOM     19  O   UNL     1      -9.422   1.976   0.000  0.00  0.00    +0.042 OA
ATOM     20  O   UNL     1      -6.824   1.976   0.000  0.00  0.00    -0.576 OA
ENDBRANCH  17  18
ENDBRANCH   5   4
BRANCH   5   8
ATOM      8  C   UNL     1      -4.774  -1.574   0.000  0.00  0.00    +0.170 A 
ATOM      9  C   UNL     1      -3.275  -1.574   0.000  0.00  0.00    +0.298 A 
ATOM     13  C   UNL     1      -2.525  -2.873   0.000  0.00  0.00    +0.086 A 
ATOM     14  C   UNL     1      -3.275  -4.172   0.000  0.00  0.00    +0.007 A 
ATOM     15  C   UNL     1      -4.774  -4.172   0.000  0.00  0.00    +0.002 A 
ATOM     16  C   UNL     1      -5.524  -2.873   0.000  0.00  0.00    +0.034 A 
BRANCH   9  10
ATOM     10  N   UNL     1      -2.525  -0.275   0.000  0.00  0.00    +0.082 N 
ATOM     11  O   UNL     1      -1.025  -0.275   0.000  0.00  0.00    +0.042 OA
ATOM     12  O   UNL     1      -3.275   1.025   0.000  0.00  0.00    -0.576 OA
ENDBRANCH   9  10
ENDBRANCH   5   8
TORSDOF 4