REMARK  Name = 634568
REMARK  2 active torsions:
REMARK  status: ('A' for Active; 'I' for Inactive)
REMARK    1  A    between atoms: N_2  and  C_9
REMARK    2  A    between atoms: N_4  and  C_10
REMARK                            x       y       z     vdW  Elec       q    Type
REMARK                         _______ _______ _______ _____ _____    ______ ____
ROOT
ATOM      1  C   UNL     1     -10.307   5.454   0.000  0.00  0.00    +0.284 A 
ATOM      2  O   UNL     1     -10.307   6.954   0.000  0.00  0.00    -0.265 OA
ATOM      3  C   UNL     1      -9.007   4.704   0.000  0.00  0.00    +0.172 A 
ATOM      4  N   UNL     1      -7.581   5.167   0.000  0.00  0.00    -0.214 NA
ATOM      5  C   UNL     1      -6.699   3.954   0.000  0.00  0.00    +0.181 A 
ATOM      6  S   UNL     1      -5.273   3.490   0.000  0.00  0.00    -0.045 S 
ATOM      7  C   UNL     1      -5.273   1.990   0.000  0.00  0.00    +0.090 A 
ATOM      8  C   UNL     1      -4.158   0.987   0.000  0.00  0.00    +0.203 C 
ATOM      9  O   UNL     1      -2.731   1.450   0.000  0.00  0.00    -0.286 OA
ATOM     10  C   UNL     1      -4.470  -0.481   0.000  0.00  0.00    +0.034 A 
ATOM     11  C   UNL     1      -3.355  -1.484   0.000  0.00  0.00    +0.012 A 
ATOM     12  C   UNL     1      -3.667  -2.952   0.000  0.00  0.00    +0.001 A 
ATOM     13  C   UNL     1      -5.093  -3.415   0.000  0.00  0.00    +0.001 A 
ATOM     14  C   UNL     1      -6.208  -2.412   0.000  0.00  0.00    +0.012 A 
ATOM     15  C   UNL     1      -5.896  -0.944   0.000  0.00  0.00    +0.035 A 
ATOM     16  C   UNL     1      -7.011   0.059   0.000  0.00  0.00    +0.212 C 
ATOM     17  O   UNL     1      -8.438  -0.404   0.000  0.00  0.00    -0.285 OA
ATOM     18  C   UNL     1      -6.699   1.527   0.000  0.00  0.00    +0.115 A 
ATOM     19  N   UNL     1      -7.581   2.740   0.000  0.00  0.00    -0.268 N 
ATOM     20  C   UNL     1      -9.007   3.204   0.000  0.00  0.00    +0.156 A 
ATOM     21  N   UNL     1     -10.307   2.454   0.000  0.00  0.00    -0.281 N 
ATOM     22  C   UNL     1     -10.307   0.954   0.000  0.00  0.00    +0.155 C 
ATOM     23  C   UNL     1     -11.605   3.204   0.000  0.00  0.00    +0.333 A 
ATOM     24  O   UNL     1     -12.905   2.454   0.000  0.00  0.00    -0.246 OA
ATOM     25  N   UNL     1     -11.605   4.704   0.000  0.00  0.00    -0.262 N 
ATOM     26  C   UNL     1     -12.905   5.454   0.000  0.00  0.00    +0.157 C 
ENDROOT
TORSDOF 0