REMARK  Name = 635404
REMARK  3 active torsions:
REMARK  status: ('A' for Active; 'I' for Inactive)
REMARK    1  A    between atoms: N_11  and  N_12
REMARK    2  A    between atoms: C_13  and  C_15
REMARK    3  A    between atoms: C_20  and  O_21
REMARK                            x       y       z     vdW  Elec       q    Type
REMARK                         _______ _______ _______ _____ _____    ______ ____
ROOT
ATOM      1  C   UNL     1       0.649   6.773   0.000  0.00  0.00    +0.012 A 
ATOM      2  C   UNL     1       1.260   5.402   0.000  0.00  0.00    +0.028 A 
ATOM      3  C   UNL     1       2.686   4.939   0.000  0.00  0.00    +0.153 C 
ATOM      4  N   UNL     1       3.900   5.821   0.000  0.00  0.00    -0.174 NA
ATOM     17  C   UNL     1       2.686   3.439   0.000  0.00  0.00    +0.269 C 
ATOM     18  O   UNL     1       3.900   2.557   0.000  0.00  0.00    -0.268 OA
ATOM     19  N   UNL     1       1.260   2.975   0.000  0.00  0.00    -0.280 N 
ATOM     20  H   UNL     1       0.955   2.039   0.000  0.00  0.00    +0.155 HD
ATOM     21  C   UNL     1       0.378   4.189   0.000  0.00  0.00    +0.043 A 
ATOM     22  C   UNL     1      -1.114   4.346   0.000  0.00  0.00    +0.024 A 
ATOM     23  C   UNL     1      -1.724   5.716   0.000  0.00  0.00    +0.002 A 
ATOM     24  C   UNL     1      -0.842   6.930   0.000  0.00  0.00    +0.001 A 
ENDROOT
BRANCH   4   5
ATOM      5  N   UNL     1       3.743   7.312   0.000  0.00  0.00    -0.202 N 
ATOM      6  H   UNL     1       2.844   7.713   0.000  0.00  0.00    +0.178 HD
ATOM      7  C   UNL     1       4.956   8.194   0.000  0.00  0.00    +0.267 C 
ATOM     16  O   UNL     1       4.800   9.686   0.000  0.00  0.00    -0.268 OA
BRANCH   7   8
ATOM      8  C   UNL     1       6.327   7.584   0.000  0.00  0.00    +0.080 A 
ATOM      9  C   UNL     1       7.540   8.466   0.000  0.00  0.00    +0.129 A 
ATOM     12  C   UNL     1       8.911   7.856   0.000  0.00  0.00    +0.046 A 
ATOM     13  C   UNL     1       9.067   6.364   0.000  0.00  0.00    +0.004 A 
ATOM     14  C   UNL     1       7.854   5.482   0.000  0.00  0.00    +0.001 A 
ATOM     15  C   UNL     1       6.484   6.092   0.000  0.00  0.00    +0.017 A 
BRANCH   9  10
ATOM     10  O   UNL     1       7.383   9.957   0.000  0.00  0.00    -0.506 OA
ATOM     11  H   UNL     1       8.142  10.508   0.000  0.00  0.00    +0.292 HD
ENDBRANCH   9  10
ENDBRANCH   7   8
ENDBRANCH   4   5
TORSDOF 3