REMARK  Name = 634926
REMARK  2 active torsions:
REMARK  status: ('A' for Active; 'I' for Inactive)
REMARK    1  A    between atoms: C_1  and  C_13
REMARK    2  A    between atoms: C_3  and  C_23
REMARK                            x       y       z     vdW  Elec       q    Type
REMARK                         _______ _______ _______ _____ _____    ______ ____
ROOT
ATOM      1  C   UNL     1       6.795  -6.105   0.000  0.00  0.00    +0.120 C 
ATOM     12  S   UNL     1       5.399  -5.557   0.000  0.00  0.00    +0.064 S 
ATOM     13  O   UNL     1       5.287  -4.061   0.000  0.00  0.00    -0.251 OA
ATOM     14  C   UNL     1       4.099  -6.307   0.000  0.00  0.00    +0.065 A 
ATOM     15  C   UNL     1       2.927  -5.372   0.000  0.00  0.00    +0.019 A 
ATOM     16  C   UNL     1       1.531  -5.920   0.000  0.00  0.00    +0.001 A 
ATOM     17  C   UNL     1       1.307  -7.403   0.000  0.00  0.00    +0.002 A 
ATOM     18  C   UNL     1       2.480  -8.338   0.000  0.00  0.00    +0.029 A 
ATOM     19  C   UNL     1       3.876  -7.790   0.000  0.00  0.00    +0.080 A 
ATOM     20  N   UNL     1       4.896  -8.890   0.000  0.00  0.00    -0.250 NA
ATOM     21  C   UNL     1       6.392  -8.778   0.000  0.00  0.00    +0.051 C 
ATOM     32  C   UNL     1       7.237  -7.538   0.000  0.00  0.00    +0.077 C 
ENDROOT
BRANCH   1   2
ATOM      2  C   UNL     1       7.894  -5.085   0.000  0.00  0.00    -0.024 A 
ATOM      3  C   UNL     1       9.328  -5.527   0.000  0.00  0.00    +0.005 A 
ATOM      4  C   UNL     1      10.427  -4.507   0.000  0.00  0.00    +0.001 A 
ATOM      5  C   UNL     1      10.094  -3.044   0.000  0.00  0.00    +0.008 A 
ATOM      6  C   UNL     1       8.660  -2.602   0.000  0.00  0.00    -0.018 A 
ATOM      7  C   UNL     1       8.326  -1.140   0.000  0.00  0.00    +0.008 A 
ATOM      8  C   UNL     1       6.893  -0.698   0.000  0.00  0.00    +0.001 A 
ATOM      9  C   UNL     1       5.793  -1.718   0.000  0.00  0.00    +0.001 A 
ATOM     10  C   UNL     1       6.127  -3.180   0.000  0.00  0.00    +0.009 A 
ATOM     11  C   UNL     1       7.561  -3.622   0.000  0.00  0.00    -0.014 A 
ENDBRANCH   1   2
BRANCH  21  22
ATOM     22  C   UNL     1       7.142 -10.077   0.000  0.00  0.00    +0.004 A 
ATOM     23  C   UNL     1       8.642 -10.077   0.000  0.00  0.00    -0.009 A 
ATOM     24  C   UNL     1       9.392  -8.778   0.000  0.00  0.00    +0.009 A 
ATOM     25  C   UNL     1      10.892  -8.778   0.000  0.00  0.00    +0.001 A 
ATOM     26  C   UNL     1      11.642 -10.077   0.000  0.00  0.00    +0.001 A 
ATOM     27  C   UNL     1      10.892 -11.376   0.000  0.00  0.00    +0.008 A 
ATOM     28  C   UNL     1       9.392 -11.376   0.000  0.00  0.00    -0.017 A 
ATOM     29  C   UNL     1       8.642 -12.675   0.000  0.00  0.00    +0.008 A 
ATOM     30  C   UNL     1       7.142 -12.675   0.000  0.00  0.00    +0.001 A 
ATOM     31  C   UNL     1       6.392 -11.376   0.000  0.00  0.00    +0.010 A 
ENDBRANCH  21  22
TORSDOF 2