REMARK  Name = 635437
REMARK  4 active torsions:
REMARK  status: ('A' for Active; 'I' for Inactive)
REMARK    1  A    between atoms: C_7  and  O_10
REMARK    2  A    between atoms: C_7  and  C_12
REMARK    3  A    between atoms: C_12  and  C_13
REMARK    4  A    between atoms: C_13  and  C_15
REMARK                            x       y       z     vdW  Elec       q    Type
REMARK                         _______ _______ _______ _____ _____    ______ ____
ROOT
ATOM      1  C   UNL     1      -8.690  -7.383   0.000  0.00  0.00    +0.049 A 
ATOM      2 CL   UNL     1      -8.690  -5.883   0.000  0.00  0.00    -0.083 Cl
ATOM      3  C   UNL     1      -7.391  -8.133   0.000  0.00  0.00    +0.034 A 
ATOM      4  C   UNL     1      -5.964  -7.670   0.000  0.00  0.00    +0.177 C 
ATOM     17  C   UNL     1      -5.083  -8.883   0.000  0.00  0.00    +0.254 C 
ATOM     18  O   UNL     1      -3.583  -8.883   0.000  0.00  0.00    -0.272 OA
ATOM     19  N   UNL     1      -5.964 -10.097   0.000  0.00  0.00    -0.281 N 
ATOM     20  H   UNL     1      -5.660 -11.033   0.000  0.00  0.00    +0.155 HD
ATOM     21  C   UNL     1      -7.391  -9.633   0.000  0.00  0.00    +0.060 A 
ATOM     22  C   UNL     1      -8.690 -10.383   0.000  0.00  0.00    +0.063 A 
ATOM     23 CL   UNL     1      -8.690 -11.883   0.000  0.00  0.00    -0.082 Cl
ATOM     24  C   UNL     1      -9.989  -9.633   0.000  0.00  0.00    +0.023 A 
ATOM     25  C   UNL     1      -9.989  -8.133   0.000  0.00  0.00    +0.022 A 
ENDROOT
BRANCH   4  15
ATOM     15  O   UNL     1      -6.574  -6.299   0.000  0.00  0.00    -0.374 OA
ATOM     16  H   UNL     1      -6.004  -5.515   0.000  0.00  0.00    +0.211 HD
ENDBRANCH   4  15
BRANCH   4   5
ATOM      5  C   UNL     1      -4.665  -6.920   0.000  0.00  0.00    +0.129 C 
BRANCH   5   6
ATOM      6  C   UNL     1      -4.665  -5.420   0.000  0.00  0.00    +0.167 C 
ATOM     14  O   UNL     1      -5.964  -4.670   0.000  0.00  0.00    -0.292 OA
BRANCH   6   7
ATOM      7  C   UNL     1      -3.366  -4.670   0.000  0.00  0.00    +0.018 A 
ATOM      8  C   UNL     1      -3.366  -3.170   0.000  0.00  0.00    +0.013 A 
ATOM      9  C   UNL     1      -2.067  -2.420   0.000  0.00  0.00    +0.020 A 
ATOM     10  C   UNL     1      -0.768  -3.170   0.000  0.00  0.00    +0.041 A 
ATOM     11 CL   UNL     1       0.531  -2.420   0.000  0.00  0.00    -0.084 Cl
ATOM     12  C   UNL     1      -0.768  -4.670   0.000  0.00  0.00    +0.020 A 
ATOM     13  C   UNL     1      -2.067  -5.420   0.000  0.00  0.00    +0.013 A 
ENDBRANCH   6   7
ENDBRANCH   5   6
ENDBRANCH   4   5
TORSDOF 4