REMARK  Name = 629738
REMARK  11 active torsions:
REMARK  status: ('A' for Active; 'I' for Inactive)
REMARK    1  A    between atoms: C_7  and  C_11
REMARK    2  A    between atoms: C_12  and  C_13
REMARK    3  A    between atoms: N_23  and  C_24
REMARK    4  A    between atoms: C_24  and  C_25
REMARK    5  A    between atoms: C_25  and  C_32
REMARK    6  A    between atoms: N_28  and  C_29
REMARK    7  A    between atoms: C_29  and  C_30
REMARK    8  A    between atoms: C_30  and  C_31
REMARK    9  A    between atoms: C_31  and  C_34
REMARK   10  A    between atoms: C_32  and  C_33
REMARK   11  A    between atoms: C_33  and  C_34
REMARK                            x       y       z     vdW  Elec       q    Type
REMARK                         _______ _______ _______ _____ _____    ______ ____
ROOT
ATOM     10  C   UNL     1       8.544 -12.000   0.000  0.00  0.00    +0.000 C 
ENDROOT
BRANCH  10   9
ATOM      9  C   UNL     1       7.245 -12.750   0.000  0.00  0.00    +0.002 C 
BRANCH   9   8
ATOM      8  C   UNL     1       7.245 -14.250   0.000  0.00  0.00    +0.019 C 
BRANCH   8   7
ATOM      7  C   UNL     1       5.946 -15.000   0.000  0.00  0.00    +0.104 C 
BRANCH   7   5
ATOM      3  C   UNL     1       4.647 -17.250   0.000  0.00  0.00    +0.245 C 
ATOM      4  O   UNL     1       3.348 -16.500   0.000  0.00  0.00    -0.270 OA
ATOM      5  N   UNL     1       5.946 -16.500   0.000  0.00  0.00    -0.311 N 
ATOM      6  H   UNL     1       6.799 -16.992   0.000  0.00  0.00    +0.149 HD
BRANCH   3   2
ATOM      1  C   UNL     1       3.348 -19.500   0.000  0.00  0.00    -0.006 A 
ATOM      2  C   UNL     1       4.647 -18.750   0.000  0.00  0.00    +0.044 A 
ATOM     29  C   UNL     1       5.946 -19.500   0.000  0.00  0.00    +0.013 A 
ATOM     30  C   UNL     1       5.946 -21.000   0.000  0.00  0.00    +0.001 A 
ATOM     31  C   UNL     1       4.647 -21.750   0.000  0.00  0.00    +0.008 A 
ATOM     32  C   UNL     1       3.348 -21.000   0.000  0.00  0.00    -0.017 A 
ATOM     33  C   UNL     1       2.049 -21.750   0.000  0.00  0.00    +0.008 A 
ATOM     34  C   UNL     1       0.750 -21.000   0.000  0.00  0.00    +0.001 A 
ATOM     35  C   UNL     1       0.750 -19.500   0.000  0.00  0.00    +0.001 A 
ATOM     36  C   UNL     1       2.049 -18.750   0.000  0.00  0.00    +0.009 A 
ENDBRANCH   3   2
ENDBRANCH   7   5
ENDBRANCH   8   7
ENDBRANCH   9   8
ENDBRANCH  10   9
BRANCH  10  11
ATOM     11  C   UNL     1       8.544 -10.500   0.000  0.00  0.00    +0.000 C 
BRANCH  11  12
ATOM     12  C   UNL     1       7.245  -9.750   0.000  0.00  0.00    +0.002 C 
BRANCH  12  13
ATOM     13  C   UNL     1       7.245  -8.250   0.000  0.00  0.00    +0.019 C 
BRANCH  13  14
ATOM     14  C   UNL     1       5.946  -7.500   0.000  0.00  0.00    +0.104 C 
BRANCH  14  15
ATOM     15  N   UNL     1       5.946  -6.000   0.000  0.00  0.00    -0.311 N 
ATOM     16  H   UNL     1       6.799  -5.508   0.000  0.00  0.00    +0.149 HD
ATOM     17  C   UNL     1       4.647  -5.250   0.000  0.00  0.00    +0.245 C 
ATOM     18  O   UNL     1       3.348  -6.000   0.000  0.00  0.00    -0.270 OA
BRANCH  17  19
ATOM     19  C   UNL     1       4.647  -3.750   0.000  0.00  0.00    +0.044 A 
ATOM     20  C   UNL     1       3.348  -3.000   0.000  0.00  0.00    -0.006 A 
ATOM     21  C   UNL     1       2.049  -3.750   0.000  0.00  0.00    +0.009 A 
ATOM     22  C   UNL     1       0.750  -3.000   0.000  0.00  0.00    +0.001 A 
ATOM     23  C   UNL     1       0.750  -1.500   0.000  0.00  0.00    +0.001 A 
ATOM     24  C   UNL     1       2.049  -0.750   0.000  0.00  0.00    +0.008 A 
ATOM     25  C   UNL     1       3.348  -1.500   0.000  0.00  0.00    -0.017 A 
ATOM     26  C   UNL     1       4.647  -0.750   0.000  0.00  0.00    +0.008 A 
ATOM     27  C   UNL     1       5.946  -1.500   0.000  0.00  0.00    +0.001 A 
ATOM     28  C   UNL     1       5.946  -3.000   0.000  0.00  0.00    +0.013 A 
ENDBRANCH  17  19
ENDBRANCH  14  15
ENDBRANCH  13  14
ENDBRANCH  12  13
ENDBRANCH  11  12
ENDBRANCH  10  11
TORSDOF 11