REMARK  Name = 629659
REMARK  1 active torsions:
REMARK  status: ('A' for Active; 'I' for Inactive)
REMARK    1  A    between atoms: C_5  and  C_7
REMARK                            x       y       z     vdW  Elec       q    Type
REMARK                         _______ _______ _______ _____ _____    ______ ____
ROOT
ATOM      4  C   UNL     1      -9.271  -4.603   0.000  0.00  0.00    +0.068 C 
ATOM      5  C   UNL     1      -9.271  -6.103   0.000  0.00  0.00    +0.067 C 
ATOM      6  C   UNL     1      -7.972  -6.853   0.000  0.00  0.00    +0.104 C 
ATOM      7  C   UNL     1      -6.673  -6.103   0.000  0.00  0.00    +0.241 C 
ATOM      8  O   UNL     1      -5.374  -6.853   0.000  0.00  0.00    -0.273 OA
ATOM      9  N   UNL     1      -6.673  -4.603   0.000  0.00  0.00    -0.136 N 
ATOM     10  C   UNL     1      -5.374  -3.853   0.000  0.00  0.00    +0.189 A 
ATOM     11  N   UNL     1      -4.004  -4.463   0.000  0.00  0.00    -0.223 NA
ATOM     12  C   UNL     1      -3.000  -3.348   0.000  0.00  0.00    +0.080 A 
ATOM     13  C   UNL     1      -1.500  -3.348   0.000  0.00  0.00    +0.029 A 
ATOM     14  C   UNL     1      -0.750  -2.049   0.000  0.00  0.00    +0.002 A 
ATOM     15  C   UNL     1      -1.500  -0.750   0.000  0.00  0.00    +0.001 A 
ATOM     16  C   UNL     1      -3.000  -0.750   0.000  0.00  0.00    +0.017 A 
ATOM     17  C   UNL     1      -3.750  -2.049   0.000  0.00  0.00    +0.041 A 
ATOM     18  S   UNL     1      -5.217  -2.361   0.000  0.00  0.00    -0.050 S 
ATOM     19  N   UNL     1      -7.972  -3.853   0.000  0.00  0.00    -0.175 NA
ENDROOT
BRANCH   4   3
ATOM      1  C   UNL     1     -13.168  -3.853   0.000  0.00  0.00    +0.001 A 
ATOM      2  C   UNL     1     -11.869  -4.603   0.000  0.00  0.00    +0.010 A 
ATOM      3  C   UNL     1     -10.570  -3.853   0.000  0.00  0.00    -0.002 A 
ATOM     20  C   UNL     1     -10.570  -2.353   0.000  0.00  0.00    +0.010 A 
ATOM     21  C   UNL     1     -11.869  -1.603   0.000  0.00  0.00    +0.001 A 
ATOM     22  C   UNL     1     -13.168  -2.353   0.000  0.00  0.00    +0.000 A 
ENDBRANCH   4   3
TORSDOF 1