REMARK  Name = 635328
REMARK  4 active torsions:
REMARK  status: ('A' for Active; 'I' for Inactive)
REMARK    1  A    between atoms: C_11  and  O_12
REMARK    2  A    between atoms: C_11  and  C_13
REMARK    3  A    between atoms: C_13  and  C_14
REMARK    4  A    between atoms: C_14  and  C_16
REMARK                            x       y       z     vdW  Elec       q    Type
REMARK                         _______ _______ _______ _____ _____    ______ ____
ROOT
ATOM      1  C   UNL     1      -9.391  -3.123   0.000  0.00  0.00    +0.029 A 
ATOM      2  C   UNL     1      -9.548  -4.615   0.000  0.00  0.00    +0.017 A 
ATOM      3  C   UNL     1      -8.544  -5.730   0.000  0.00  0.00    +0.175 C 
ATOM     19  C   UNL     1      -9.294  -7.029   0.000  0.00  0.00    +0.254 C 
ATOM     20  O   UNL     1      -8.684  -8.399   0.000  0.00  0.00    -0.272 OA
ATOM     21  N   UNL     1     -10.761  -6.717   0.000  0.00  0.00    -0.281 N 
ATOM     22  H   UNL     1     -11.493  -7.376   0.000  0.00  0.00    +0.155 HD
ATOM     23  C   UNL     1     -10.918  -5.225   0.000  0.00  0.00    +0.058 A 
ATOM     24  C   UNL     1     -12.132  -4.344   0.000  0.00  0.00    +0.064 A 
ATOM     25 CL   UNL     1     -13.502  -4.954   0.000  0.00  0.00    -0.082 Cl
ATOM     26  C   UNL     1     -11.975  -2.852   0.000  0.00  0.00    +0.042 A 
ATOM     27  C   UNL     1     -10.605  -2.242   0.000  0.00  0.00    +0.043 A 
ATOM     28 CL   UNL     1     -10.448  -0.750   0.000  0.00  0.00    -0.083 Cl
ENDROOT
BRANCH   3  17
ATOM     17  O   UNL     1      -7.794  -4.431   0.000  0.00  0.00    -0.374 OA
ATOM     18  H   UNL     1      -6.824  -4.431   0.000  0.00  0.00    +0.211 HD
ENDBRANCH   3  17
BRANCH   3   4
ATOM      4  C   UNL     1      -7.245  -6.480   0.000  0.00  0.00    +0.129 C 
BRANCH   4   5
ATOM      5  C   UNL     1      -5.946  -5.730   0.000  0.00  0.00    +0.167 C 
ATOM     16  O   UNL     1      -5.946  -4.230   0.000  0.00  0.00    -0.292 OA
BRANCH   5   6
ATOM      6  C   UNL     1      -4.647  -6.480   0.000  0.00  0.00    +0.025 A 
ATOM      7  C   UNL     1      -4.647  -7.980   0.000  0.00  0.00    +0.012 A 
ATOM      8  C   UNL     1      -3.348  -8.730   0.000  0.00  0.00    +0.001 A 
ATOM      9  C   UNL     1      -2.049  -7.980   0.000  0.00  0.00    +0.008 A 
ATOM     10  C   UNL     1      -2.049  -6.480   0.000  0.00  0.00    -0.017 A 
ATOM     11  C   UNL     1      -0.750  -5.730   0.000  0.00  0.00    +0.008 A 
ATOM     12  C   UNL     1      -0.750  -4.230   0.000  0.00  0.00    +0.001 A 
ATOM     13  C   UNL     1      -2.049  -3.480   0.000  0.00  0.00    +0.001 A 
ATOM     14  C   UNL     1      -3.348  -4.230   0.000  0.00  0.00    +0.009 A 
ATOM     15  C   UNL     1      -3.348  -5.730   0.000  0.00  0.00    -0.007 A 
ENDBRANCH   5   6
ENDBRANCH   4   5
ENDBRANCH   3   4
TORSDOF 4