REMARK  Name = 632839
REMARK  4 active torsions:
REMARK  status: ('A' for Active; 'I' for Inactive)
REMARK    1  A    between atoms: C_1  and  C_22
REMARK    2  A    between atoms: C_4  and  C_7
REMARK    3  A    between atoms: C_14  and  C_16
REMARK    4  A    between atoms: C_19  and  C_23
REMARK                            x       y       z     vdW  Elec       q    Type
REMARK                         _______ _______ _______ _____ _____    ______ ____
ROOT
ATOM      1 CL   UNL     1       4.024  10.118   0.000  0.00  0.00    -0.145 Cl
ATOM      2  H   UNL     1       5.354  10.118   0.000  0.00  0.00    +0.145 HD
ENDROOT
TORSDOF 0