REMARK  Name = 635312
REMARK  5 active torsions:
REMARK  status: ('A' for Active; 'I' for Inactive)
REMARK    1  A    between atoms: C_8  and  C_9
REMARK    2  A    between atoms: C_8  and  O_27
REMARK    3  A    between atoms: C_9  and  C_13
REMARK    4  A    between atoms: C_9  and  C_21
REMARK    5  A    between atoms: C_13  and  C_15
REMARK                            x       y       z     vdW  Elec       q    Type
REMARK                         _______ _______ _______ _____ _____    ______ ____
ROOT
ATOM      1  C   UNL     1       8.558 -10.018   0.000  0.00  0.00    +0.043 A 
ATOM      2 CL   UNL     1       9.673 -11.022   0.000  0.00  0.00    -0.083 Cl
ATOM      3  C   UNL     1       8.870  -8.551   0.000  0.00  0.00    +0.029 A 
ATOM      4  C   UNL     1       7.755  -7.548   0.000  0.00  0.00    +0.018 A 
ATOM      5  C   UNL     1       7.754  -6.048   0.000  0.00  0.00    +0.182 C 
ATOM     23  C   UNL     1       6.327  -5.585   0.000  0.00  0.00    +0.255 C 
ATOM     24  N   UNL     1       5.446  -6.798   0.000  0.00  0.00    -0.281 N 
ATOM     25  H   UNL     1       4.462  -6.799   0.000  0.00  0.00    +0.155 HD
ATOM     26  O   UNL     1       5.864  -4.158   0.000  0.00  0.00    -0.272 OA
ATOM     27  C   UNL     1       6.328  -8.012   0.000  0.00  0.00    +0.059 A 
ATOM     28  C   UNL     1       6.017  -9.479   0.000  0.00  0.00    +0.064 A 
ATOM     29 CL   UNL     1       4.590  -9.943   0.000  0.00  0.00    -0.082 Cl
ATOM     30  C   UNL     1       7.132 -10.482   0.000  0.00  0.00    +0.042 A 
ENDROOT
BRANCH   5   6
ATOM      6  O   UNL     1       9.246  -6.204   0.000  0.00  0.00    -0.374 OA
ATOM      7  H   UNL     1       9.641  -7.090   0.000  0.00  0.00    +0.211 HD
ENDBRANCH   5   6
BRANCH   5   8
ATOM      8  C   UNL     1       8.066  -4.580   0.000  0.00  0.00    +0.135 C 
BRANCH   8   9
ATOM      9  C   UNL     1       7.361  -3.256   0.000  0.00  0.00    -0.033 A 
ATOM     10  C   UNL     1       5.862  -3.204   0.000  0.00  0.00    +0.004 A 
ATOM     11  C   UNL     1       5.157  -1.880   0.000  0.00  0.00    +0.000 A 
ATOM     12  C   UNL     1       5.952  -0.608   0.000  0.00  0.00    +0.000 A 
ATOM     13  C   UNL     1       7.451  -0.660   0.000  0.00  0.00    +0.000 A 
ATOM     14  C   UNL     1       8.156  -1.984   0.000  0.00  0.00    +0.004 A 
ENDBRANCH   8   9
BRANCH   8  15
ATOM     15  C   UNL     1       9.492  -4.117   0.000  0.00  0.00    +0.174 C 
ATOM     22  O   UNL     1       9.804  -2.649   0.000  0.00  0.00    -0.291 OA
BRANCH  15  16
ATOM     16  C   UNL     1      10.607  -5.120   0.000  0.00  0.00    +0.018 A 
ATOM     17  C   UNL     1      12.034  -4.656   0.000  0.00  0.00    +0.011 A 
ATOM     18  C   UNL     1      13.149  -5.659   0.000  0.00  0.00    +0.001 A 
ATOM     19  C   UNL     1      12.837  -7.127   0.000  0.00  0.00    +0.000 A 
ATOM     20  C   UNL     1      11.411  -7.591   0.000  0.00  0.00    +0.001 A 
ATOM     21  C   UNL     1      10.296  -6.587   0.000  0.00  0.00    +0.011 A 
ENDBRANCH  15  16
ENDBRANCH   8  15
ENDBRANCH   5   8
TORSDOF 5