REMARK  Name = 631529
REMARK  1 active torsions:
REMARK  status: ('A' for Active; 'I' for Inactive)
REMARK    1  A    between atoms: N_16  and  C_17
REMARK                            x       y       z     vdW  Elec       q    Type
REMARK                         _______ _______ _______ _____ _____    ______ ____
ROOT
ATOM      1  C   UNL     1     -14.313  -3.037   0.000  0.00  0.00    +0.001 A 
ATOM      2  C   UNL     1     -12.846  -3.349   0.000  0.00  0.00    +0.012 A 
ATOM      3  C   UNL     1     -11.842  -2.234   0.000  0.00  0.00    +0.035 A 
ATOM      4  C   UNL     1     -10.375  -2.546   0.000  0.00  0.00    +0.213 C 
ATOM      5  C   UNL     1      -9.371  -1.431   0.000  0.00  0.00    +0.131 A 
ATOM      6  N   UNL     1      -7.872  -1.431   0.000  0.00  0.00    -0.221 NA
ATOM      7  C   UNL     1      -7.408  -0.004   0.000  0.00  0.00    +0.164 A 
ATOM      8  N   UNL     1      -5.981   0.459   0.000  0.00  0.00    -0.294 N 
ATOM      9  H   UNL     1      -5.777   1.422   0.000  0.00  0.00    +0.154 HD
ATOM     17  S   UNL     1      -8.621   0.877   0.000  0.00  0.00    -0.048 S 
ATOM     18  C   UNL     1      -9.835  -0.004   0.000  0.00  0.00    +0.092 A 
ATOM     19  C   UNL     1     -11.302   0.308   0.000  0.00  0.00    +0.203 C 
ATOM     20  O   UNL     1     -11.766   1.734   0.000  0.00  0.00    -0.286 OA
ATOM     21  O   UNL     1      -9.912  -3.972   0.000  0.00  0.00    -0.285 OA
ATOM     22  C   UNL     1     -12.306  -0.807   0.000  0.00  0.00    +0.034 A 
ATOM     23  C   UNL     1     -13.773  -0.495   0.000  0.00  0.00    +0.012 A 
ATOM     24  C   UNL     1     -14.777  -1.610   0.000  0.00  0.00    +0.001 A 
ENDROOT
BRANCH   8  10
ATOM     10  C   UNL     1      -4.867  -0.544   0.000  0.00  0.00    +0.033 A 
ATOM     11  C   UNL     1      -5.178  -2.012   0.000  0.00  0.00    +0.025 A 
ATOM     12  C   UNL     1      -4.064  -3.015   0.000  0.00  0.00    +0.022 A 
ATOM     13  C   UNL     1      -2.637  -2.552   0.000  0.00  0.00    +0.041 A 
ATOM     14 CL   UNL     1      -1.523  -3.556   0.000  0.00  0.00    -0.084 Cl
ATOM     15  C   UNL     1      -2.325  -1.085   0.000  0.00  0.00    +0.022 A 
ATOM     16  C   UNL     1      -3.440  -0.081   0.000  0.00  0.00    +0.025 A 
ENDBRANCH   8  10
TORSDOF 1