REMARK  Name = 62791
REMARK  11 active torsions:
REMARK  status: ('A' for Active; 'I' for Inactive)
REMARK    1  A    between atoms: C_2  and  O_18
REMARK    2  A    between atoms: C_5  and  C_19
REMARK    3  A    between atoms: C_13  and  C_20
REMARK    4  A    between atoms: C_15  and  C_22
REMARK    5  A    between atoms: C_21  and  C_22
REMARK    6  A    between atoms: C_22  and  C_23
REMARK    7  A    between atoms: C_24  and  C_26
REMARK    8  A    between atoms: C_25  and  C_26
REMARK    9  A    between atoms: C_26  and  C_27
REMARK   10  A    between atoms: C_27  and  C_28
REMARK   11  A    between atoms: C_27  and  C_29
REMARK                            x       y       z     vdW  Elec       q    Type
REMARK                         _______ _______ _______ _____ _____    ______ ____
ROOT
ATOM      1  C   UNL     1      -0.783   7.357   0.000  0.00  0.00    +0.032 C 
ATOM      2  C   UNL     1      -0.783   5.857   0.000  0.00  0.00    +0.119 C 
ATOM      5  C   UNL     1       0.516   5.107   0.000  0.00  0.00    +0.062 C 
ATOM      6  C   UNL     1       1.815   5.857   0.000  0.00  0.00    -0.061 C 
ATOM      7  C   UNL     1       3.114   5.107   0.000  0.00  0.00    -0.000 C 
ATOM      8  C   UNL     1       4.413   5.856   0.000  0.00  0.00    -0.000 C 
ATOM      9  C   UNL     1       4.413   7.357   0.000  0.00  0.00    -0.062 C 
ATOM     10  C   UNL     1       5.712   8.107   0.000  0.00  0.00    +0.021 C 
ATOM     11  C   UNL     1       7.139   7.643   0.000  0.00  0.00    +0.009 C 
ATOM     12  C   UNL     1       8.020   8.857   0.000  0.00  0.00    +0.005 C 
ATOM     13  C   UNL     1       7.139  10.070   0.000  0.00  0.00    +0.002 C 
ATOM     23  C   UNL     1       5.712   9.607   0.000  0.00  0.00    -0.022 C 
ATOM     24  C   UNL     1       5.869  11.098   0.000  0.00  0.00    +0.012 C 
ATOM     25  C   UNL     1       4.413  10.357   0.000  0.00  0.00    +0.008 C 
ATOM     26  C   UNL     1       3.114   9.607   0.000  0.00  0.00    +0.009 C 
ATOM     27  C   UNL     1       3.114   8.107   0.000  0.00  0.00    +0.025 C 
ATOM     28  C   UNL     1       1.815   7.357   0.000  0.00  0.00    -0.004 C 
ATOM     29  C   UNL     1       1.815   8.857   0.000  0.00  0.00    +0.016 C 
ATOM     30  C   UNL     1       0.516   8.107   0.000  0.00  0.00    +0.014 C 
ENDROOT
BRANCH   2   3
ATOM      3  O   UNL     1      -2.082   5.107   0.000  0.00  0.00    -0.391 OA
ATOM      4  H   UNL     1      -2.922   5.592   0.000  0.00  0.00    +0.210 HD
ENDBRANCH   2   3
BRANCH  13  14
ATOM     14  C   UNL     1       7.602  11.497   0.000  0.00  0.00    +0.012 C 
ATOM     22  C   UNL     1       6.598  12.611   0.000  0.00  0.00    +0.012 C 
BRANCH  14  15
ATOM     15  C   UNL     1       9.069  11.809   0.000  0.00  0.00    -0.027 C 
ATOM     16  C   UNL     1       9.533  13.235   0.000  0.00  0.00    -0.027 C 
BRANCH  16  17
ATOM     17  C   UNL     1       8.529  14.350   0.000  0.00  0.00    +0.011 C 
ATOM     21  C   UNL     1       7.062  14.038   0.000  0.00  0.00    +0.012 C 
BRANCH  17  18
ATOM     18  C   UNL     1       8.993  15.776   0.000  0.00  0.00    -0.011 C 
ATOM     19  C   UNL     1       7.989  16.891   0.000  0.00  0.00    +0.008 C 
ATOM     20  C   UNL     1      10.460  16.088   0.000  0.00  0.00    +0.008 C 
ENDBRANCH  17  18
ENDBRANCH  16  17
ENDBRANCH  14  15
ENDBRANCH  13  14
TORSDOF 5