REMARK  Name = 634473
REMARK  8 active torsions:
REMARK  status: ('A' for Active; 'I' for Inactive)
REMARK    1  A    between atoms: C_3  and  C_18
REMARK    2  A    between atoms: C_4  and  C_12
REMARK    3  A    between atoms: C_5  and  C_8
REMARK    4  A    between atoms: C_8  and  O_10
REMARK    5  A    between atoms: O_10  and  C_11
REMARK    6  A    between atoms: N_20  and  C_21
REMARK    7  A    between atoms: C_24  and  O_25
REMARK    8  A    between atoms: O_25  and  C_26
REMARK                            x       y       z     vdW  Elec       q    Type
REMARK                         _______ _______ _______ _____ _____    ______ ____
ROOT
ATOM      1  C   UNL     1      -6.870   1.601   0.000  0.00  0.00    +0.176 C 
ATOM      2  C   UNL     1      -5.571   0.851   0.000  0.00  0.00    +0.100 C 
ATOM      3  C   UNL     1      -5.571  -0.649   0.000  0.00  0.00    +0.209 C 
ATOM      8  O   UNL     1      -6.870  -1.400   0.000  0.00  0.00    -0.476 OA
ATOM      9  C   UNL     1      -8.169  -0.649   0.000  0.00  0.00    +0.223 C 
ATOM     16  C   UNL     1      -8.169   0.851   0.000  0.00  0.00    +0.190 C 
ATOM     29  O   UNL     1      -6.870   3.100   0.000  0.00  0.00    -0.292 OA
ENDROOT
BRANCH   9  10
ATOM     10  C   UNL     1      -9.468  -1.400   0.000  0.00  0.00    -0.006 A 
ATOM     11  C   UNL     1      -9.468  -2.900   0.000  0.00  0.00    +0.007 A 
ATOM     12  C   UNL     1     -10.767  -3.650   0.000  0.00  0.00    +0.000 A 
ATOM     13  C   UNL     1     -12.066  -2.900   0.000  0.00  0.00    +0.000 A 
ATOM     14  C   UNL     1     -12.066  -1.400   0.000  0.00  0.00    +0.000 A 
ATOM     15  C   UNL     1     -10.767  -0.649   0.000  0.00  0.00    +0.007 A 
ENDBRANCH   9  10
BRANCH  16  17
ATOM     17  C   UNL     1      -9.468   1.601   0.000  0.00  0.00    +0.232 C 
ATOM     18  N   UNL     1     -10.767   0.851   0.000  0.00  0.00    -0.285 N 
ATOM     19  H   UNL     1     -10.767  -0.134   0.000  0.00  0.00    +0.155 HD
ATOM     28  O   UNL     1      -9.468   3.100   0.000  0.00  0.00    -0.275 OA
BRANCH  18  20
ATOM     20  C   UNL     1     -12.066   1.601   0.000  0.00  0.00    +0.034 A 
ATOM     21  C   UNL     1     -12.066   3.100   0.000  0.00  0.00    +0.027 A 
ATOM     22  C   UNL     1     -13.365   3.850   0.000  0.00  0.00    +0.047 A 
ATOM     23  C   UNL     1     -14.664   3.100   0.000  0.00  0.00    +0.120 A 
ATOM     26  C   UNL     1     -14.664   1.600   0.000  0.00  0.00    +0.047 A 
ATOM     27  C   UNL     1     -13.365   0.851   0.000  0.00  0.00    +0.027 A 
BRANCH  23  24
ATOM     24  O   UNL     1     -15.964   3.850   0.000  0.00  0.00    -0.495 OA
ATOM     25  C   UNL     1     -17.262   3.100   0.000  0.00  0.00    +0.277 C 
ENDBRANCH  23  24
ENDBRANCH  18  20
ENDBRANCH  16  17
BRANCH   3   4
ATOM      4  C   UNL     1      -4.272  -1.400   0.000  0.00  0.00    +0.374 C 
ATOM      7  O   UNL     1      -4.272  -2.900   0.000  0.00  0.00    -0.242 OA
BRANCH   4   5
ATOM      5  O   UNL     1      -2.973  -0.649   0.000  0.00  0.00    -0.462 OA
ATOM      6  C   UNL     1      -1.674  -1.400   0.000  0.00  0.00    +0.280 C 
ENDBRANCH   4   5
ENDBRANCH   3   4
TORSDOF 6