REMARK  Name = 632841
REMARK  3 active torsions:
REMARK  status: ('A' for Active; 'I' for Inactive)
REMARK    1  A    between atoms: C_8  and  C_16
REMARK    2  A    between atoms: C_9  and  C_10
REMARK    3  A    between atoms: C_22  and  C_24
REMARK                            x       y       z     vdW  Elec       q    Type
REMARK                         _______ _______ _______ _____ _____    ______ ____
ROOT
ATOM      1  C   UNL     1      -6.000  -4.647   0.000  0.00  0.00    +0.188 C 
ATOM      2  C   UNL     1      -5.250  -3.348   0.000  0.00  0.00    +0.017 C 
ATOM      3  C   UNL     1      -6.000  -2.049   0.000  0.00  0.00    +0.017 C 
ATOM     10  C   UNL     1      -3.750  -3.348   0.000  0.00  0.00    +0.147 C 
ATOM     11  N   UNL     1      -3.000  -4.647   0.000  0.00  0.00    -0.289 N 
ATOM     12  C   UNL     1      -1.500  -4.647   0.000  0.00  0.00    +0.239 C 
ATOM     15  O   UNL     1      -0.750  -5.946   0.000  0.00  0.00    -0.271 OA
ATOM     16  C   UNL     1      -3.750  -5.946   0.000  0.00  0.00    +0.147 C 
ATOM     17  C   UNL     1      -5.250  -5.946   0.000  0.00  0.00    +0.017 C 
ATOM     18  C   UNL     1      -6.000  -7.245   0.000  0.00  0.00    +0.017 C 
ATOM     25  O   UNL     1      -7.500  -4.647   0.000  0.00  0.00    -0.287 OA
ENDROOT
BRANCH   3   4
ATOM      4  C   UNL     1      -5.250  -0.750   0.000  0.00  0.00    -0.025 A 
ATOM      5  C   UNL     1      -3.750  -0.750   0.000  0.00  0.00    +0.008 A 
ATOM      6  C   UNL     1      -3.000   0.549   0.000  0.00  0.00    +0.001 A 
ATOM      7  C   UNL     1      -3.750   1.848   0.000  0.00  0.00    +0.000 A 
ATOM      8  C   UNL     1      -5.250   1.848   0.000  0.00  0.00    +0.001 A 
ATOM      9  C   UNL     1      -6.000   0.549   0.000  0.00  0.00    +0.008 A 
ENDBRANCH   3   4
BRANCH  18  19
ATOM     19  C   UNL     1      -5.250  -8.544   0.000  0.00  0.00    -0.025 A 
ATOM     20  C   UNL     1      -3.750  -8.544   0.000  0.00  0.00    +0.008 A 
ATOM     21  C   UNL     1      -3.000  -9.843   0.000  0.00  0.00    +0.001 A 
ATOM     22  C   UNL     1      -3.750 -11.142   0.000  0.00  0.00    +0.000 A 
ATOM     23  C   UNL     1      -5.250 -11.142   0.000  0.00  0.00    +0.001 A 
ATOM     24  C   UNL     1      -6.000  -9.843   0.000  0.00  0.00    +0.008 A 
ENDBRANCH  18  19
BRANCH  12  13
ATOM     13  C   UNL     1      -0.750  -3.348   0.000  0.00  0.00    +0.060 C 
ATOM     14  C   UNL     1      -1.500  -2.049   0.000  0.00  0.00    +0.013 C 
ENDBRANCH  12  13
TORSDOF 3