REMARK  Name = 635337
REMARK  9 active torsions:
REMARK  status: ('A' for Active; 'I' for Inactive)
REMARK    1  A    between atoms: C_5  and  C_7
REMARK    2  A    between atoms: C_7  and  C_8
REMARK    3  A    between atoms: C_7  and  C_10
REMARK    4  A    between atoms: C_10  and  C_14
REMARK    5  A    between atoms: N_11  and  N_12
REMARK    6  A    between atoms: C_13  and  C_19
REMARK    7  A    between atoms: C_14  and  O_17
REMARK    8  A    between atoms: C_16  and  O_17
REMARK    9  A    between atoms: C_24  and  O_25
REMARK                            x       y       z     vdW  Elec       q    Type
REMARK                         _______ _______ _______ _____ _____    ______ ____
ROOT
ATOM      5  C   UNL     1      -8.544  -3.000   0.000  0.00  0.00    +0.164 C 
ATOM     10  N   UNL     1      -7.245  -3.750   0.000  0.00  0.00    -0.176 NA
ENDROOT
BRANCH  10  11
ATOM     11  N   UNL     1      -5.946  -3.000   0.000  0.00  0.00    -0.202 N 
ATOM     12  H   UNL     1      -5.946  -2.016   0.000  0.00  0.00    +0.178 HD
ATOM     13  C   UNL     1      -4.647  -3.750   0.000  0.00  0.00    +0.267 C 
ATOM     22  O   UNL     1      -4.647  -5.250   0.000  0.00  0.00    -0.268 OA
BRANCH  13  14
ATOM     14  C   UNL     1      -3.348  -3.000   0.000  0.00  0.00    +0.080 A 
ATOM     15  C   UNL     1      -3.348  -1.500   0.000  0.00  0.00    +0.129 A 
ATOM     18  C   UNL     1      -2.049  -0.750   0.000  0.00  0.00    +0.046 A 
ATOM     19  C   UNL     1      -0.750  -1.500   0.000  0.00  0.00    +0.004 A 
ATOM     20  C   UNL     1      -0.750  -3.000   0.000  0.00  0.00    +0.001 A 
ATOM     21  C   UNL     1      -2.049  -3.750   0.000  0.00  0.00    +0.017 A 
BRANCH  15  16
ATOM     16  O   UNL     1      -4.647  -0.750   0.000  0.00  0.00    -0.506 OA
ATOM     17  H   UNL     1      -4.647   0.187   0.000  0.00  0.00    +0.292 HD
ENDBRANCH  15  16
ENDBRANCH  13  14
ENDBRANCH  10  11
BRANCH   5   6
ATOM      6  C   UNL     1      -8.544  -1.500   0.000  0.00  0.00    +0.356 C 
ATOM      9  O   UNL     1      -9.843  -0.750   0.000  0.00  0.00    -0.243 OA
BRANCH   6   7
ATOM      7  O   UNL     1      -7.245  -0.750   0.000  0.00  0.00    -0.464 OA
ATOM      8  C   UNL     1      -5.946  -1.500   0.000  0.00  0.00    +0.280 C 
ENDBRANCH   6   7
ENDBRANCH   5   6
BRANCH   5   4
ATOM      4  C   UNL     1      -9.843  -3.750   0.000  0.00  0.00    +0.178 C 
BRANCH   4   3
ATOM      1  C   UNL     1     -12.441  -0.750   0.000  0.00  0.00    +0.000 A 
ATOM      2  C   UNL     1     -11.142  -1.500   0.000  0.00  0.00    +0.005 A 
ATOM      3  C   UNL     1     -11.142  -3.000   0.000  0.00  0.00    -0.024 A 
ATOM     25  C   UNL     1     -12.441  -3.750   0.000  0.00  0.00    +0.005 A 
ATOM     26  C   UNL     1     -13.740  -3.000   0.000  0.00  0.00    +0.000 A 
ATOM     27  C   UNL     1     -13.740  -1.500   0.000  0.00  0.00    +0.000 A 
ENDBRANCH   4   3
BRANCH   4  23
ATOM     23  C   UNL     1      -9.843  -5.250   0.000  0.00  0.00    +0.077 C 
ATOM     24  N   UNL     1      -9.843  -6.750   0.000  0.00  0.00    -0.196 NA
ENDBRANCH   4  23
ENDBRANCH   5   4
TORSDOF 8