REMARK  Name = 627666
REMARK  6 active torsions:
REMARK  status: ('A' for Active; 'I' for Inactive)
REMARK    1  A    between atoms: C_1  and  O_2
REMARK    2  A    between atoms: O_2  and  C_3
REMARK    3  A    between atoms: C_4  and  O_5
REMARK    4  A    between atoms: O_5  and  C_6
REMARK    5  A    between atoms: C_14  and  C_23
REMARK    6  A    between atoms: C_15  and  C_17
REMARK                            x       y       z     vdW  Elec       q    Type
REMARK                         _______ _______ _______ _____ _____    ______ ____
ROOT
ATOM      3  C   UNL     1      -7.419  -6.649   0.000  0.00  0.00    +0.162 A 
ATOM      4  C   UNL     1      -6.120  -5.899   0.000  0.00  0.00    +0.053 A 
ATOM      5  C   UNL     1      -4.821  -6.649   0.000  0.00  0.00    -0.035 A 
ATOM      6  C   UNL     1      -3.522  -5.899   0.000  0.00  0.00    +0.054 C 
ATOM      7  C   UNL     1      -2.223  -6.649   0.000  0.00  0.00    +0.114 C 
ATOM      8  N   UNL     1      -2.223  -8.149   0.000  0.00  0.00    -0.275 N 
ATOM      9  C   UNL     1      -0.814  -8.662   0.000  0.00  0.00    +0.248 C 
ATOM     16  O   UNL     1      -0.553 -10.140   0.000  0.00  0.00    -0.270 OA
ATOM     17  C   UNL     1      -3.522  -8.899   0.000  0.00  0.00    +0.154 C 
ATOM     18  C   UNL     1      -3.522 -10.400   0.000  0.00  0.00    +0.082 C 
ATOM     19  C   UNL     1      -4.821 -11.150   0.000  0.00  0.00    -0.032 A 
ATOM     20  C   UNL     1      -4.821 -12.650   0.000  0.00  0.00    +0.054 A 
ATOM     21  C   UNL     1      -6.120 -13.400   0.000  0.00  0.00    +0.167 A 
ATOM     22  O   UNL     1      -6.432 -14.867   0.000  0.00  0.00    -0.453 OA
ATOM     23  C   UNL     1      -7.924 -15.024   0.000  0.00  0.00    +0.466 C 
ATOM     24  O   UNL     1      -8.534 -13.653   0.000  0.00  0.00    -0.453 OA
ATOM     25  C   UNL     1      -7.419 -12.650   0.000  0.00  0.00    +0.167 A 
ATOM     26  C   UNL     1      -7.419 -11.150   0.000  0.00  0.00    +0.058 A 
ATOM     27  C   UNL     1      -6.120 -10.400   0.000  0.00  0.00    -0.007 A 
ATOM     28  C   UNL     1      -6.120  -8.899   0.000  0.00  0.00    +0.034 A 
ATOM     31  C   UNL     1      -4.821  -8.149   0.000  0.00  0.00    +0.005 A 
ATOM     32  C   UNL     1      -7.419  -8.149   0.000  0.00  0.00    +0.170 A 
ENDROOT
BRANCH   9  10
ATOM     10  C   UNL     1       0.336  -7.698   0.000  0.00  0.00    +0.037 A 
ATOM     11  C   UNL     1       1.745  -8.211   0.000  0.00  0.00    +0.013 A 
ATOM     12  C   UNL     1       2.894  -7.247   0.000  0.00  0.00    +0.001 A 
ATOM     13  C   UNL     1       2.634  -5.770   0.000  0.00  0.00    +0.000 A 
ATOM     14  C   UNL     1       1.224  -5.257   0.000  0.00  0.00    +0.001 A 
ATOM     15  C   UNL     1       0.075  -6.221   0.000  0.00  0.00    +0.013 A 
ENDBRANCH   9  10
BRANCH   3   2
ATOM      1  C   UNL     1     -10.017  -6.649   0.000  0.00  0.00    +0.277 C 
ATOM      2  O   UNL     1      -8.718  -5.899   0.000  0.00  0.00    -0.491 OA
ENDBRANCH   3   2
BRANCH  17  29
ATOM     29  C   UNL     1      -2.373  -9.864   0.000  0.00  0.00    +0.094 C 
ATOM     30  N   UNL     1      -1.224 -10.828   0.000  0.00  0.00    -0.194 NA
ENDBRANCH  17  29
BRANCH  32  33
ATOM     33  O   UNL     1      -8.718  -8.899   0.000  0.00  0.00    -0.491 OA
ATOM     34  C   UNL     1     -10.017  -8.149   0.000  0.00  0.00    +0.277 C 
ENDBRANCH  32  33
TORSDOF 4