REMARK  Name = 629301
REMARK  4 active torsions:
REMARK  status: ('A' for Active; 'I' for Inactive)
REMARK    1  A    between atoms: C_14  and  C_16
REMARK    2  A    between atoms: C_14  and  C_19
REMARK    3  A    between atoms: C_15  and  C_17
REMARK    4  A    between atoms: C_15  and  C_18
REMARK                            x       y       z     vdW  Elec       q    Type
REMARK                         _______ _______ _______ _____ _____    ______ ____
ROOT
ATOM      1  C   UNL     1       1.980   5.560   0.000  0.00  0.00    +0.135 A 
ATOM      2  O   UNL     1       1.980   7.060   0.000  0.00  0.00    -0.463 OA
ATOM      3  C   UNL     1       3.428   7.449   0.000  0.00  0.00    +0.200 A 
ATOM      4  C   UNL     1       4.489   6.233   0.000  0.00  0.00    +0.008 A 
ATOM      5  C   UNL     1       5.983   6.102   0.000  0.00  0.00    +0.082 C 
ATOM      6  C   UNL     1       6.844   4.873   0.000  0.00  0.00    +0.185 C 
ATOM      7  C   UNL     1       6.455   3.424   0.000  0.00  0.00    +0.185 C 
ATOM     12  C   UNL     1       5.096   2.790   0.000  0.00  0.00    +0.079 C 
ATOM     13  C   UNL     1       4.177   3.976   0.000  0.00  0.00    -0.020 C 
ATOM     14  C   UNL     1       3.817   3.723   0.000  0.00  0.00    -0.027 A 
ATOM     15  C   UNL     1       2.756   2.662   0.000  0.00  0.00    +0.005 A 
ATOM     16  C   UNL     1       1.307   3.051   0.000  0.00  0.00    +0.004 A 
ATOM     21  C   UNL     1       4.566   5.425   0.000  0.00  0.00    -0.020 C 
ATOM     22  C   UNL     1       3.428   5.172   0.000  0.00  0.00    +0.028 A 
ATOM     23  C   UNL     1       0.919   4.500   0.000  0.00  0.00    +0.047 A 
ENDROOT
BRANCH   7   8
ATOM      8  C   UNL     1       7.925   3.121   0.000  0.00  0.00    +0.088 C 
ATOM      9  N   UNL     1       9.393   2.818   0.000  0.00  0.00    -0.195 NA
ENDBRANCH   7   8
BRANCH   7  10
ATOM     10  C   UNL     1       6.759   1.955   0.000  0.00  0.00    +0.088 C 
ATOM     11  N   UNL     1       7.062   0.486   0.000  0.00  0.00    -0.195 NA
ENDBRANCH   7  10
BRANCH   6  17
ATOM     17  C   UNL     1       8.268   4.401   0.000  0.00  0.00    +0.088 C 
ATOM     18  N   UNL     1       9.691   3.930   0.000  0.00  0.00    -0.195 NA
ENDBRANCH   6  17
BRANCH   6  19
ATOM     19  C   UNL     1       7.841   5.994   0.000  0.00  0.00    +0.088 C 
ATOM     20  N   UNL     1       8.838   7.114   0.000  0.00  0.00    -0.195 NA
ENDBRANCH   6  19
TORSDOF 4