REMARK  Name = 635321
REMARK  6 active torsions:
REMARK  status: ('A' for Active; 'I' for Inactive)
REMARK    1  A    between atoms: C_4  and  C_7
REMARK    2  A    between atoms: C_10  and  O_11
REMARK    3  A    between atoms: C_10  and  C_12
REMARK    4  A    between atoms: C_12  and  C_13
REMARK    5  A    between atoms: C_12  and  C_17
REMARK    6  A    between atoms: C_13  and  C_23
REMARK                            x       y       z     vdW  Elec       q    Type
REMARK                         _______ _______ _______ _____ _____    ______ ____
ROOT
ATOM      1  C   UNL     1       3.504   4.137   0.000  0.00  0.00    +0.010 A 
ATOM      2  C   UNL     1       3.347   5.628   0.000  0.00  0.00    +0.015 A 
ATOM      3  C   UNL     1       4.351   6.743   0.000  0.00  0.00    +0.182 C 
ATOM     21  C   UNL     1       3.601   8.042   0.000  0.00  0.00    +0.255 C 
ATOM     22  O   UNL     1       4.211   9.412   0.000  0.00  0.00    -0.272 OA
ATOM     23  N   UNL     1       2.134   7.730   0.000  0.00  0.00    -0.282 N 
ATOM     24  H   UNL     1       1.402   8.389   0.000  0.00  0.00    +0.155 HD
ATOM     25  C   UNL     1       1.977   6.239   0.000  0.00  0.00    +0.044 A 
ATOM     26  C   UNL     1       0.763   5.357   0.000  0.00  0.00    -0.011 A 
ATOM     27  C   UNL     1      -0.607   5.967   0.000  0.00  0.00    +0.047 C 
ATOM     28  C   UNL     1       0.920   3.865   0.000  0.00  0.00    +0.046 A 
ATOM     29 CL   UNL     1      -0.294   2.983   0.000  0.00  0.00    -0.083 Cl
ATOM     30  C   UNL     1       2.290   3.255   0.000  0.00  0.00    +0.021 A 
ENDROOT
BRANCH   3  19
ATOM     19  O   UNL     1       5.101   5.444   0.000  0.00  0.00    -0.374 OA
ATOM     20  H   UNL     1       4.616   4.604   0.000  0.00  0.00    +0.211 HD
ENDBRANCH   3  19
BRANCH   3   4
ATOM      4  C   UNL     1       5.650   7.493   0.000  0.00  0.00    +0.135 C 
BRANCH   4   5
ATOM      5  C   UNL     1       6.949   6.743   0.000  0.00  0.00    -0.033 A 
ATOM      6  C   UNL     1       6.949   5.243   0.000  0.00  0.00    +0.004 A 
ATOM      7  C   UNL     1       8.248   4.493   0.000  0.00  0.00    +0.000 A 
ATOM      8  C   UNL     1       9.547   5.243   0.000  0.00  0.00    +0.000 A 
ATOM      9  C   UNL     1       9.547   6.743   0.000  0.00  0.00    +0.000 A 
ATOM     10  C   UNL     1       8.248   7.493   0.000  0.00  0.00    +0.004 A 
ENDBRANCH   4   5
BRANCH   4  11
ATOM     11  C   UNL     1       5.910   8.970   0.000  0.00  0.00    +0.174 C 
ATOM     18  O   UNL     1       4.761   9.934   0.000  0.00  0.00    -0.291 OA
BRANCH  11  12
ATOM     12  C   UNL     1       7.320   9.483   0.000  0.00  0.00    +0.018 A 
ATOM     13  C   UNL     1       7.580  10.961   0.000  0.00  0.00    +0.011 A 
ATOM     14  C   UNL     1       8.990  11.474   0.000  0.00  0.00    +0.001 A 
ATOM     15  C   UNL     1      10.139  10.509   0.000  0.00  0.00    +0.000 A 
ATOM     16  C   UNL     1       9.878   9.032   0.000  0.00  0.00    +0.001 A 
ATOM     17  C   UNL     1       8.469   8.519   0.000  0.00  0.00    +0.011 A 
ENDBRANCH  11  12
ENDBRANCH   4  11
ENDBRANCH   3   4
TORSDOF 5