REMARK  Name = 634396
REMARK  4 active torsions:
REMARK  status: ('A' for Active; 'I' for Inactive)
REMARK    1  A    between atoms: C_8  and  C_11
REMARK    2  A    between atoms: C_11  and  C_12
REMARK    3  A    between atoms: N_13  and  C_14
REMARK    4  A    between atoms: C_19  and  C_20
REMARK                            x       y       z     vdW  Elec       q    Type
REMARK                         _______ _______ _______ _____ _____    ______ ____
ROOT
ATOM      5  C   UNL     1      -8.544  -3.750   0.000  0.00  0.00    +0.120 C 
ENDROOT
BRANCH   5   4
ATOM      1  C   UNL     1     -13.740  -3.750   0.000  0.00  0.00    +0.016 A 
ATOM      2  C   UNL     1     -12.441  -3.000   0.000  0.00  0.00    +0.030 A 
ATOM      3  S   UNL     1     -11.142  -3.750   0.000  0.00  0.00    -0.110 S 
ATOM      4  C   UNL     1      -9.843  -3.000   0.000  0.00  0.00    +0.146 C 
ATOM     18  C   UNL     1      -9.843  -1.500   0.000  0.00  0.00    +0.231 C 
ATOM     19  O   UNL     1      -8.544  -0.750   0.000  0.00  0.00    -0.274 OA
ATOM     20  N   UNL     1     -11.142  -0.750   0.000  0.00  0.00    -0.284 N 
ATOM     21  H   UNL     1     -11.142   0.234   0.000  0.00  0.00    +0.155 HD
ATOM     22  C   UNL     1     -12.441  -1.500   0.000  0.00  0.00    +0.047 A 
ATOM     23  C   UNL     1     -13.740  -0.750   0.000  0.00  0.00    +0.024 A 
ATOM     24  C   UNL     1     -15.039  -1.500   0.000  0.00  0.00    +0.002 A 
ATOM     25  C   UNL     1     -15.039  -3.000   0.000  0.00  0.00    +0.001 A 
ENDBRANCH   5   4
BRANCH   5   6
ATOM      6  C   UNL     1      -7.245  -3.000   0.000  0.00  0.00    +0.219 C 
ATOM      7  O   UNL     1      -7.245  -1.500   0.000  0.00  0.00    -0.275 OA
ATOM      8  N   UNL     1      -5.946  -3.750   0.000  0.00  0.00    -0.285 N 
ATOM      9  H   UNL     1      -5.946  -4.734   0.000  0.00  0.00    +0.155 HD
BRANCH   8  10
ATOM     10  C   UNL     1      -4.647  -3.000   0.000  0.00  0.00    +0.038 A 
ATOM     11  C   UNL     1      -3.348  -3.750   0.000  0.00  0.00    -0.011 A 
ATOM     12  C   UNL     1      -3.348  -5.250   0.000  0.00  0.00    +0.047 C 
ATOM     13  C   UNL     1      -2.049  -3.000   0.000  0.00  0.00    +0.046 A 
ATOM     14 CL   UNL     1      -0.750  -3.750   0.000  0.00  0.00    -0.083 Cl
ATOM     15  C   UNL     1      -2.049  -1.500   0.000  0.00  0.00    +0.020 A 
ATOM     16  C   UNL     1      -3.348  -0.750   0.000  0.00  0.00    +0.003 A 
ATOM     17  C   UNL     1      -4.647  -1.500   0.000  0.00  0.00    +0.023 A 
ENDBRANCH   8  10
ENDBRANCH   5   6
TORSDOF 3