REMARK  Name = 633209
REMARK  2 active torsions:
REMARK  status: ('A' for Active; 'I' for Inactive)
REMARK    1  A    between atoms: C_6  and  C_10
REMARK    2  A    between atoms: N_12  and  C_22
REMARK                            x       y       z     vdW  Elec       q    Type
REMARK                         _______ _______ _______ _____ _____    ______ ____
ROOT
ATOM      9  C   UNL     1       5.698   3.938   0.000  0.00  0.00    +0.271 C 
ATOM     10  N   UNL     1       7.069   4.548   0.000  0.00  0.00    -0.235 N 
ATOM     11  H   UNL     1       7.172   5.527   0.000  0.00  0.00    +0.159 HD
ATOM     12  C   UNL     1       8.282   3.667   0.000  0.00  0.00    +0.310 C 
ATOM     13  O   UNL     1       8.125   2.175   0.000  0.00  0.00    -0.252 OA
ATOM     14  N   UNL     1       9.652   4.277   0.000  0.00  0.00    -0.269 N 
ATOM     15  H   UNL     1       9.755   5.256   0.000  0.00  0.00    +0.156 HD
ATOM     23  O   UNL     1       5.542   2.446   0.000  0.00  0.00    -0.268 OA
ENDROOT
BRANCH   9   8
ATOM      1  C   UNL     1       2.177   3.143   0.000  0.00  0.00    +0.101 A 
ATOM      2  C   UNL     1       0.750   3.606   0.000  0.00  0.00    +0.067 A 
ATOM      3  S   UNL     1       0.750   5.106   0.000  0.00  0.00    -0.058 S 
ATOM      4  C   UNL     1       2.177   5.570   0.000  0.00  0.00    +0.179 A 
ATOM      5  N   UNL     1       3.058   6.783   0.000  0.00  0.00    -0.209 NA
ATOM      6  C   UNL     1       4.485   6.320   0.000  0.00  0.00    +0.161 A 
ATOM      7 CL   UNL     1       5.698   7.202   0.000  0.00  0.00    -0.060 Cl
ATOM      8  C   UNL     1       4.485   4.820   0.000  0.00  0.00    +0.148 A 
ATOM     24  N   UNL     1       3.058   4.356   0.000  0.00  0.00    -0.288 N 
ENDBRANCH   9   8
BRANCH  14  16
ATOM     16  C   UNL     1      10.866   3.395   0.000  0.00  0.00    +0.035 A 
ATOM     17  C   UNL     1      12.236   4.005   0.000  0.00  0.00    +0.025 A 
ATOM     18  C   UNL     1      13.450   3.123   0.000  0.00  0.00    +0.022 A 
ATOM     19  C   UNL     1      13.293   1.632   0.000  0.00  0.00    +0.041 A 
ATOM     20 CL   UNL     1      14.507   0.750   0.000  0.00  0.00    -0.084 Cl
ATOM     21  C   UNL     1      11.923   1.022   0.000  0.00  0.00    +0.022 A 
ATOM     22  C   UNL     1      10.709   1.903   0.000  0.00  0.00    +0.025 A 
ENDBRANCH  14  16
TORSDOF 2