REMARK  Name = 635121
REMARK  5 active torsions:
REMARK  status: ('A' for Active; 'I' for Inactive)
REMARK    1  A    between atoms: C_8  and  C_11
REMARK    2  A    between atoms: C_11  and  C_12
REMARK    3  A    between atoms: N_13  and  N_14
REMARK    4  A    between atoms: C_15  and  C_17
REMARK    5  A    between atoms: C_18  and  O_23
REMARK                            x       y       z     vdW  Elec       q    Type
REMARK                         _______ _______ _______ _____ _____    ______ ____
ROOT
ATOM      5  C   UNL     1       4.821   6.649   0.000  0.00  0.00    +0.071 C 
ATOM      6  N   UNL     1       4.821   8.149   0.000  0.00  0.00    -0.184 NA
ATOM     19  C   UNL     1       6.120   5.899   0.000  0.00  0.00    +0.068 C 
ENDROOT
BRANCH   5   4
ATOM      1  C   UNL     1      -0.375   6.649   0.000  0.00  0.00    +0.017 A 
ATOM      2  C   UNL     1       0.924   5.899   0.000  0.00  0.00    +0.034 A 
ATOM      3  S   UNL     1       2.223   6.649   0.000  0.00  0.00    -0.085 S 
ATOM      4  C   UNL     1       3.522   5.899   0.000  0.00  0.00    +0.049 C 
ATOM     20  C   UNL     1       3.522   4.399   0.000  0.00  0.00    +0.089 C 
ATOM     21  N   UNL     1       2.223   3.650   0.000  0.00  0.00    -0.319 N 
ATOM     22  H   UNL     1       2.223   2.665   0.000  0.00  0.00    +0.152 HD
ATOM     23  C   UNL     1       0.924   4.399   0.000  0.00  0.00    +0.045 A 
ATOM     24  C   UNL     1      -0.375   3.650   0.000  0.00  0.00    +0.024 A 
ATOM     25  C   UNL     1      -1.674   4.399   0.000  0.00  0.00    +0.002 A 
ATOM     26  C   UNL     1      -1.674   5.899   0.000  0.00  0.00    +0.001 A 
ENDBRANCH   5   4
BRANCH   6   7
ATOM      7  N   UNL     1       6.120   8.899   0.000  0.00  0.00    -0.203 N 
ATOM      8  H   UNL     1       6.120   9.884   0.000  0.00  0.00    +0.178 HD
ATOM      9  C   UNL     1       7.419   8.149   0.000  0.00  0.00    +0.267 C 
ATOM     18  O   UNL     1       7.419   6.649   0.000  0.00  0.00    -0.268 OA
BRANCH   9  10
ATOM     10  C   UNL     1       8.718   8.899   0.000  0.00  0.00    +0.080 A 
ATOM     11  C   UNL     1       8.718  10.400   0.000  0.00  0.00    +0.017 A 
ATOM     12  C   UNL     1      10.017  11.150   0.000  0.00  0.00    +0.001 A 
ATOM     13  C   UNL     1      11.316  10.400   0.000  0.00  0.00    +0.004 A 
ATOM     14  C   UNL     1      11.316   8.899   0.000  0.00  0.00    +0.046 A 
ATOM     15  C   UNL     1      10.017   8.149   0.000  0.00  0.00    +0.129 A 
BRANCH  15  16
ATOM     16  O   UNL     1      10.017   6.649   0.000  0.00  0.00    -0.506 OA
ATOM     17  H   UNL     1       9.206   6.181   0.000  0.00  0.00    +0.292 HD
ENDBRANCH  15  16
ENDBRANCH   9  10
ENDBRANCH   6   7
TORSDOF 4