REMARK  Name = 1451
REMARK  3 active torsions:
REMARK  status: ('A' for Active; 'I' for Inactive)
REMARK    1  A    between atoms: C_3  and  C_8
REMARK    2  A    between atoms: C_3  and  N_14
REMARK    3  A    between atoms: N_17  and  C_18
REMARK                            x       y       z     vdW  Elec       q    Type
REMARK                         _______ _______ _______ _____ _____    ______ ____
ROOT
ATOM      1  N   UNL     1      -4.459  -4.941   0.000  0.00  0.00    -0.220 NA
ATOM      2  C   UNL     1      -4.459  -3.441   0.000  0.00  0.00    +0.225 A 
ATOM      3  N   UNL     1      -3.160  -2.691   0.000  0.00  0.00    -0.216 NA
ATOM      4  C   UNL     1      -1.861  -3.441   0.000  0.00  0.00    +0.163 A 
ATOM      5  N   UNL     1      -0.434  -2.977   0.000  0.00  0.00    -0.249 N 
ATOM      6  C   UNL     1       0.029  -1.550   0.000  0.00  0.00    +0.174 C 
ATOM      7  N   UNL     1       0.447  -4.191   0.000  0.00  0.00    -0.177 NA
ATOM      8  C   UNL     1      -0.434  -5.404   0.000  0.00  0.00    +0.148 A 
ATOM      9  C   UNL     1      -1.861  -4.941   0.000  0.00  0.00    +0.078 A 
ATOM     10  C   UNL     1      -3.160  -5.691   0.000  0.00  0.00    +0.133 A 
ATOM     11  N   UNL     1      -3.160  -7.191   0.000  0.00  0.00    -0.324 N 
ATOM     12  H   UNL     1      -2.307  -7.683   0.000  0.00  0.00    +0.148 HD
ENDROOT
BRANCH  11  13
ATOM     13  C   UNL     1      -4.459  -7.941   0.000  0.00  0.00    +0.138 C 
BRANCH  13  14
ATOM     14  C   UNL     1      -5.758  -7.191   0.000  0.00  0.00    -0.030 A 
ATOM     15  C   UNL     1      -5.758  -5.691   0.000  0.00  0.00    +0.005 A 
ATOM     16  C   UNL     1      -7.057  -4.941   0.000  0.00  0.00    +0.000 A 
ATOM     17  C   UNL     1      -8.356  -5.691   0.000  0.00  0.00    +0.000 A 
ATOM     18  C   UNL     1      -8.356  -7.191   0.000  0.00  0.00    +0.000 A 
ATOM     19  C   UNL     1      -7.057  -7.941   0.000  0.00  0.00    +0.005 A 
ENDBRANCH  13  14
ENDBRANCH  11  13
TORSDOF 2