REMARK  Name = 153391
REMARK  6 active torsions:
REMARK  status: ('A' for Active; 'I' for Inactive)
REMARK    1  A    between atoms: S_1  and  C_7
REMARK    2  A    between atoms: S_1  and  C_15
REMARK    3  A    between atoms: N_3  and  C_11
REMARK    4  A    between atoms: C_13  and  O_22
REMARK    5  A    between atoms: C_17  and  N_21
REMARK    6  A    between atoms: O_22  and  C_23
REMARK                            x       y       z     vdW  Elec       q    Type
REMARK                         _______ _______ _______ _____ _____    ______ ____
ROOT
ATOM     11  C   UNL     1      -7.021  -2.741   0.000  0.00  0.00    +0.147 C 
ATOM     12  C   UNL     1      -6.017  -3.856   0.000  0.00  0.00    +0.240 C 
ATOM     13  O   UNL     1      -6.329  -5.323   0.000  0.00  0.00    -0.274 OA
ATOM     14  N   UNL     1      -4.647  -3.245   0.000  0.00  0.00    -0.206 N 
ATOM     23  C   UNL     1      -4.804  -1.754   0.000  0.00  0.00    +0.228 C 
ATOM     24  O   UNL     1      -3.689  -0.750   0.000  0.00  0.00    -0.275 OA
ATOM     25  C   UNL     1      -6.271  -1.442   0.000  0.00  0.00    +0.120 C 
ENDROOT
BRANCH  14  15
ATOM     15  C   UNL     1      -3.348  -3.995   0.000  0.00  0.00    +0.085 A 
ATOM     16  C   UNL     1      -3.348  -5.495   0.000  0.00  0.00    +0.142 A 
ATOM     19  C   UNL     1      -2.049  -6.245   0.000  0.00  0.00    +0.047 A 
ATOM     20  C   UNL     1      -0.750  -5.495   0.000  0.00  0.00    +0.004 A 
ATOM     21  C   UNL     1      -0.750  -3.995   0.000  0.00  0.00    +0.002 A 
ATOM     22  C   UNL     1      -2.049  -3.245   0.000  0.00  0.00    +0.027 A 
BRANCH  16  17
ATOM     17  O   UNL     1      -4.647  -6.245   0.000  0.00  0.00    -0.493 OA
ATOM     18  C   UNL     1      -4.647  -7.745   0.000  0.00  0.00    +0.277 C 
ENDBRANCH  16  17
ENDBRANCH  14  15
BRANCH  11   1
ATOM      1  S   UNL     1      -8.513  -2.898   0.000  0.00  0.00    -0.110 S 
BRANCH   1   2
ATOM      2  C   UNL     1      -9.395  -1.684   0.000  0.00  0.00    +0.029 A 
ATOM      3  C   UNL     1     -10.886  -1.841   0.000  0.00  0.00    +0.016 A 
ATOM      4  C   UNL     1     -11.768  -0.627   0.000  0.00  0.00    +0.001 A 
ATOM      5  C   UNL     1     -11.158   0.743   0.000  0.00  0.00    +0.002 A 
ATOM      6  C   UNL     1      -9.666   0.900   0.000  0.00  0.00    +0.024 A 
ATOM      7  C   UNL     1      -8.784  -0.314   0.000  0.00  0.00    +0.038 A 
BRANCH   7   8
ATOM      8  N   UNL     1      -7.293  -0.157   0.000  0.00  0.00    -0.357 N 
ATOM      9  H   UNL     1      -6.892   0.742   0.000  0.00  0.00    +0.142 HD
ATOM     10  H   UNL     1      -6.714  -0.953   0.000  0.00  0.00    +0.142 HD
ENDBRANCH   7   8
ENDBRANCH   1   2
ENDBRANCH  11   1
TORSDOF 5