REMARK  Name = 149050
REMARK  2 active torsions:
REMARK  status: ('A' for Active; 'I' for Inactive)
REMARK    1  A    between atoms: N_1  and  C_12
REMARK    2  A    between atoms: C_18  and  C_20
REMARK                            x       y       z     vdW  Elec       q    Type
REMARK                         _______ _______ _______ _____ _____    ______ ____
ROOT
ATOM      1  N   UNL     1      -8.954   3.052   0.000  0.00  0.00    -0.315 N 
ATOM      2  C   UNL     1      -7.487   2.741   0.000  0.00  0.00    +0.104 A 
ATOM      3  C   UNL     1      -7.330   1.249   0.000  0.00  0.00    +0.045 A 
ATOM     12  C   UNL     1      -8.700   0.639   0.000  0.00  0.00    +0.011 A 
ATOM     13  C   UNL     1      -9.164  -0.788   0.000  0.00  0.00    +0.011 A 
ATOM     14  C   UNL     1     -10.631  -1.100   0.000  0.00  0.00    +0.001 A 
ATOM     15  C   UNL     1     -11.635   0.015   0.000  0.00  0.00    +0.002 A 
ATOM     16  C   UNL     1     -11.171   1.442   0.000  0.00  0.00    +0.027 A 
ATOM     17  C   UNL     1      -9.704   1.753   0.000  0.00  0.00    +0.054 A 
ENDROOT
BRANCH   3   4
ATOM      4  C   UNL     1      -6.031   0.499   0.000  0.00  0.00    +0.168 A 
ATOM      5  N   UNL     1      -4.732   1.249   0.000  0.00  0.00    -0.198 NA
ATOM      6  C   UNL     1      -3.433   0.499   0.000  0.00  0.00    +0.227 A 
ATOM      7 CL   UNL     1      -2.134   1.249   0.000  0.00  0.00    -0.041 Cl
ATOM      8  N   UNL     1      -3.433  -1.001   0.000  0.00  0.00    -0.187 NA
ATOM      9  C   UNL     1      -4.732  -1.751   0.000  0.00  0.00    +0.227 A 
ATOM     10 CL   UNL     1      -4.732  -3.251   0.000  0.00  0.00    -0.041 Cl
ATOM     11  N   UNL     1      -6.031  -1.001   0.000  0.00  0.00    -0.198 NA
ENDBRANCH   3   4
BRANCH   1  18
ATOM     18  C   UNL     1      -9.564   4.423   0.000  0.00  0.00    +0.047 A 
ATOM     19  C   UNL     1     -11.056   4.580   0.000  0.00  0.00    +0.026 A 
ATOM     20  C   UNL     1     -11.666   5.950   0.000  0.00  0.00    +0.002 A 
ATOM     21  C   UNL     1     -10.784   7.163   0.000  0.00  0.00    +0.000 A 
ATOM     22  C   UNL     1      -9.292   7.007   0.000  0.00  0.00    +0.002 A 
ATOM     23  C   UNL     1      -8.682   5.636   0.000  0.00  0.00    +0.026 A 
ENDBRANCH   1  18
TORSDOF 2