REMARK  Name = 149877
REMARK  2 active torsions:
REMARK  status: ('A' for Active; 'I' for Inactive)
REMARK    1  A    between atoms: N_1  and  C_8
REMARK    2  A    between atoms: C_4  and  C_7
REMARK                            x       y       z     vdW  Elec       q    Type
REMARK                         _______ _______ _______ _____ _____    ______ ____
ROOT
ATOM      1  N   UNL     1       2.873   5.524   0.000  0.00  0.00    -0.336 N 
ATOM      2  C   UNL     1       4.172   6.274   0.000  0.00  0.00    +0.150 C 
ATOM      3  C   UNL     1       2.873   4.024   0.000  0.00  0.00    +0.126 A 
ATOM      4  N   UNL     1       4.172   3.275   0.000  0.00  0.00    -0.283 NA
ATOM      5  H   UNL     1       4.172   2.290   0.000  0.00  0.00    +0.188 HD
ATOM      6  C   UNL     1       1.573   3.275   0.000  0.00  0.00    +0.049 A 
ATOM      7  C   UNL     1       0.275   4.024   0.000  0.00  0.00    -0.046 A 
ATOM      8  C   UNL     1      -1.025   3.275   0.000  0.00  0.00    +0.044 C 
ATOM      9  C   UNL     1       0.275   5.524   0.000  0.00  0.00    +0.021 A 
ATOM     10  C   UNL     1       1.573   6.274   0.000  0.00  0.00    +0.087 A 
ENDROOT
TORSDOF 0