REMARK  Name = 153365
REMARK  7 active torsions:
REMARK  status: ('A' for Active; 'I' for Inactive)
REMARK    1  A    between atoms: C_3  and  O_7
REMARK    2  A    between atoms: C_4  and  N_8
REMARK    3  A    between atoms: C_5  and  O_11
REMARK    4  A    between atoms: C_6  and  O_12
REMARK    5  A    between atoms: O_12  and  C_13
REMARK    6  A    between atoms: N_14  and  N_15
REMARK    7  A    between atoms: N_14  and  C_17
REMARK                            x       y       z     vdW  Elec       q    Type
REMARK                         _______ _______ _______ _____ _____    ______ ____
ROOT
ATOM      1  O   UNL     1      -6.274   1.025   0.000  0.00  0.00    -0.346 OA
ATOM      2  C   UNL     1      -5.524  -0.275   0.000  0.00  0.00    +0.280 C 
ATOM      5  C   UNL     1      -6.274  -1.574   0.000  0.00  0.00    +0.193 C 
ATOM      8  C   UNL     1      -7.774  -1.574   0.000  0.00  0.00    +0.138 C 
ATOM     17  C   UNL     1      -8.524  -0.275   0.000  0.00  0.00    +0.163 C 
ATOM     20  C   UNL     1      -7.774   1.025   0.000  0.00  0.00    +0.196 C 
ENDROOT
BRANCH   8   9
ATOM      9  N   UNL     1      -7.024  -0.275   0.000  0.00  0.00    -0.290 N 
ATOM     10  H   UNL     1      -6.044  -0.189   0.000  0.00  0.00    +0.151 HD
ATOM     11  C   UNL     1      -8.615   1.621   0.000  0.00  0.00    +0.324 C 
ATOM     12  N   UNL     1      -8.102   3.031   0.000  0.00  0.00    -0.144 N 
ATOM     13  C   UNL     1      -6.625   3.292   0.000  0.00  0.00    +0.166 C 
ATOM     16  O   UNL     1     -10.093   1.361   0.000  0.00  0.00    -0.251 OA
BRANCH  12  14
ATOM     14  N   UNL     1      -9.067   4.180   0.000  0.00  0.00    +0.052 NA
ATOM     15  O   UNL     1      -8.553   5.590   0.000  0.00  0.00    -0.126 OA
ENDBRANCH  12  14
ENDBRANCH   8   9
BRANCH   2   3
ATOM      3  O   UNL     1      -4.024  -0.275   0.000  0.00  0.00    -0.352 OA
ATOM      4  C   UNL     1      -3.275   1.025   0.000  0.00  0.00    +0.197 C 
ENDBRANCH   2   3
BRANCH   5   6
ATOM      6  O   UNL     1      -5.524  -2.873   0.000  0.00  0.00    -0.385 OA
ATOM      7  H   UNL     1      -6.009  -3.713   0.000  0.00  0.00    +0.210 HD
ENDBRANCH   5   6
BRANCH  17  18
ATOM     18  O   UNL     1     -10.025  -0.275   0.000  0.00  0.00    -0.388 OA
ATOM     19  H   UNL     1     -10.509   0.566   0.000  0.00  0.00    +0.210 HD
ENDBRANCH  17  18
TORSDOF 5