REMARK  Name = 152393
REMARK  0 active torsions:
REMARK  status: ('A' for Active; 'I' for Inactive)
REMARK                            x       y       z     vdW  Elec       q    Type
REMARK                         _______ _______ _______ _____ _____    ______ ____
ROOT
ATOM      1  N   UNL     1      -5.766   1.176   0.000  0.00  0.00    -0.248 NA
ATOM      2  C   UNL     1      -4.467   0.426   0.000  0.00  0.00    +0.109 A 
ATOM      3  C   UNL     1      -4.467  -1.074   0.000  0.00  0.00    +0.022 A 
ATOM      4  C   UNL     1      -5.766  -1.824   0.000  0.00  0.00    +0.013 A 
ATOM      5  C   UNL     1      -7.066  -1.074   0.000  0.00  0.00    +0.020 A 
ATOM      6  C   UNL     1      -3.041  -1.538   0.000  0.00  0.00    +0.034 A 
ATOM      7  C   UNL     1      -2.159  -0.324   0.000  0.00  0.00    +0.063 A 
ATOM      8 BR   UNL     1      -2.577  -2.964   0.000  0.00  0.00    -0.049 Br
ATOM      9  S   UNL     1      -3.041   0.890   0.000  0.00  0.00    -0.076 S 
ATOM     10  C   UNL     1      -7.066   0.426   0.000  0.00  0.00    +0.112 A 
ENDROOT
TORSDOF 0