REMARK  Name = 150954
REMARK  4 active torsions:
REMARK  status: ('A' for Active; 'I' for Inactive)
REMARK    1  A    between atoms: C_4  and  C_16
REMARK    2  A    between atoms: C_9  and  C_15
REMARK    3  A    between atoms: C_12  and  C_13
REMARK    4  A    between atoms: C_12  and  C_14
REMARK                            x       y       z     vdW  Elec       q    Type
REMARK                         _______ _______ _______ _____ _____    ______ ____
ROOT
ATOM      1  S   UNL     1      -2.324  -7.024   0.000  0.00  0.00    -0.106 S 
ATOM      2  C   UNL     1      -3.623  -7.774   0.000  0.00  0.00    +0.078 C 
ATOM      3  C   UNL     1      -3.623  -9.274   0.000  0.00  0.00    +0.040 C 
ATOM      4  C   UNL     1      -2.324 -10.025   0.000  0.00  0.00    +0.058 C 
ATOM      5  C   UNL     1      -1.359 -11.174   0.000  0.00  0.00    +0.036 C 
ATOM      6  C   UNL     1      -3.288 -11.174   0.000  0.00  0.00    +0.036 C 
ATOM      7  N   UNL     1      -1.025  -9.274   0.000  0.00  0.00    -0.271 NA
ATOM      8  C   UNL     1      -1.025  -7.774   0.000  0.00  0.00    +0.092 C 
ENDROOT
BRANCH   8   9
ATOM      9  C   UNL     1       0.275  -7.024   0.000  0.00  0.00    +0.035 C 
ATOM     10  C   UNL     1       0.275  -5.524   0.000  0.00  0.00    +0.010 C 
BRANCH  10  11
ATOM     11  C   UNL     1       1.574  -4.774   0.000  0.00  0.00    -0.025 A 
ATOM     12  C   UNL     1       2.873  -5.524   0.000  0.00  0.00    +0.008 A 
ATOM     13  C   UNL     1       4.172  -4.774   0.000  0.00  0.00    +0.001 A 
ATOM     14  C   UNL     1       4.172  -3.275   0.000  0.00  0.00    +0.000 A 
ATOM     15  C   UNL     1       2.873  -2.525   0.000  0.00  0.00    +0.001 A 
ATOM     16  C   UNL     1       1.574  -3.275   0.000  0.00  0.00    +0.008 A 
ENDBRANCH  10  11
ENDBRANCH   8   9
TORSDOF 2