REMARK  Name = 149046
REMARK  4 active torsions:
REMARK  status: ('A' for Active; 'I' for Inactive)
REMARK    1  A    between atoms: C_2  and  O_9
REMARK    2  A    between atoms: C_5  and  N_11
REMARK    3  A    between atoms: O_9  and  C_10
REMARK    4  A    between atoms: C_12  and  C_14
REMARK                            x       y       z     vdW  Elec       q    Type
REMARK                         _______ _______ _______ _____ _____    ______ ____
ROOT
ATOM      1  O   UNL     1     -10.917  -3.397   0.000  0.00  0.00    -0.288 OA
ATOM      2  C   UNL     1      -9.454  -3.063   0.000  0.00  0.00    +0.183 A 
ATOM      3  C   UNL     1      -8.519  -4.236   0.000  0.00  0.00    +0.053 A 
ATOM      4  C   UNL     1      -7.019  -4.236   0.000  0.00  0.00    +0.027 A 
ATOM      5  C   UNL     1      -6.084  -3.063   0.000  0.00  0.00    +0.037 A 
ATOM     12  C   UNL     1      -6.418  -1.600   0.000  0.00  0.00    +0.069 A 
ATOM     13  C   UNL     1      -7.769  -0.950   0.000  0.00  0.00    +0.125 A 
ATOM     16  C   UNL     1      -9.121  -1.600   0.000  0.00  0.00    +0.096 A 
ENDROOT
BRANCH   5   6
ATOM      6  N   UNL     1      -4.622  -3.397   0.000  0.00  0.00    -0.284 N 
ATOM      7  H   UNL     1      -4.332  -4.337   0.000  0.00  0.00    +0.155 HD
ATOM      8  C   UNL     1      -3.601  -2.297   0.000  0.00  0.00    +0.232 C 
ATOM     11  O   UNL     1      -4.043  -0.864   0.000  0.00  0.00    -0.274 OA
BRANCH   8   9
ATOM      9  C   UNL     1      -2.139  -2.631   0.000  0.00  0.00    +0.204 C 
ATOM     10 CL   UNL     1      -1.119  -1.531   0.000  0.00  0.00    -0.116 Cl
ENDBRANCH   8   9
ENDBRANCH   5   6
BRANCH  13  14
ATOM     14  O   UNL     1      -7.769   0.550   0.000  0.00  0.00    -0.495 OA
ATOM     15  C   UNL     1      -9.068   1.301   0.000  0.00  0.00    +0.277 C 
ENDBRANCH  13  14
TORSDOF 3