REMARK  Name = 146769
REMARK  5 active torsions:
REMARK  status: ('A' for Active; 'I' for Inactive)
REMARK    1  A    between atoms: C_4  and  C_21
REMARK    2  A    between atoms: C_5  and  N_23
REMARK    3  A    between atoms: C_9  and  N_20
REMARK    4  A    between atoms: C_12  and  N_19
REMARK    5  A    between atoms: C_16  and  N_19
REMARK                            x       y       z     vdW  Elec       q    Type
REMARK                         _______ _______ _______ _____ _____    ______ ____
ROOT
ATOM      7  C   UNL     1       3.522   4.399   0.000  0.00  0.00    +0.031 A 
ATOM      8  C   UNL     1       4.821   3.650   0.000  0.00  0.00    +0.025 A 
ATOM      9  C   UNL     1       6.120   4.399   0.000  0.00  0.00    +0.025 A 
ATOM     10  C   UNL     1       6.120   5.899   0.000  0.00  0.00    +0.034 A 
ATOM     24  C   UNL     1       4.821   6.649   0.000  0.00  0.00    +0.025 A 
ATOM     25  C   UNL     1       3.522   5.899   0.000  0.00  0.00    +0.025 A 
ENDROOT
BRANCH  10  11
ATOM     11  N   UNL     1       7.419   6.649   0.000  0.00  0.00    -0.282 N 
ATOM     12  H   UNL     1       8.272   6.157   0.000  0.00  0.00    +0.155 HD
ATOM     13  C   UNL     1       7.419   8.149   0.000  0.00  0.00    +0.248 C 
ATOM     14  O   UNL     1       6.120   8.899   0.000  0.00  0.00    -0.270 OA
BRANCH  13  15
ATOM     15  C   UNL     1       8.718   8.899   0.000  0.00  0.00    +0.037 A 
ATOM     16  C   UNL     1      10.017   8.149   0.000  0.00  0.00    +0.019 A 
ATOM     17  C   UNL     1      11.316   8.899   0.000  0.00  0.00    +0.085 A 
ATOM     18  C   UNL     1      11.316  10.400   0.000  0.00  0.00    +0.273 A 
ATOM     22  C   UNL     1      10.017  11.150   0.000  0.00  0.00    +0.085 A 
ATOM     23  C   UNL     1       8.718  10.400   0.000  0.00  0.00    +0.019 A 
BRANCH  18  19
ATOM     19  N   UNL     1      12.615  11.150   0.000  0.00  0.00    +0.080 N 
ATOM     20  O   UNL     1      13.914  10.400   0.000  0.00  0.00    +0.041 OA
ATOM     21  O   UNL     1      12.615  12.650   0.000  0.00  0.00    -0.576 OA
ENDBRANCH  18  19
ENDBRANCH  13  15
ENDBRANCH  10  11
BRANCH   7   5
ATOM      5  N   UNL     1       2.223   3.650   0.000  0.00  0.00    -0.314 N 
ATOM      6  H   UNL     1       2.223   2.665   0.000  0.00  0.00    +0.152 HD
BRANCH   5   4
ATOM      1  N   UNL     1      -1.674   5.899   0.000  0.00  0.00    -0.263 NA
ATOM      2  C   UNL     1      -1.674   4.399   0.000  0.00  0.00    +0.112 A 
ATOM      3  C   UNL     1      -0.375   3.650   0.000  0.00  0.00    +0.043 A 
ATOM      4  C   UNL     1       0.924   4.399   0.000  0.00  0.00    +0.034 A 
ATOM     26  C   UNL     1       0.924   5.899   0.000  0.00  0.00    +0.043 A 
ATOM     27  C   UNL     1      -0.375   6.649   0.000  0.00  0.00    +0.112 A 
ENDBRANCH   5   4
ENDBRANCH   7   5
TORSDOF 5