REMARK  Name = 147358
REMARK  5 active torsions:
REMARK  status: ('A' for Active; 'I' for Inactive)
REMARK    1  A    between atoms: N_16  and  CA_18
REMARK    2  A    between atoms: C_17  and  CA_18
REMARK    3  A    between atoms: C_17  and  C_19
REMARK    4  A    between atoms: CA_18  and  C_20
REMARK    5  A    between atoms: C_20  and  O_21
REMARK                            x       y       z     vdW  Elec       q    Type
REMARK                         _______ _______ _______ _____ _____    ______ ____
ROOT
ATOM      1  C   UNL     1       0.750  -5.250   0.000  0.00  0.00    +0.001 A 
ATOM      2  C   UNL     1       0.750  -6.750   0.000  0.00  0.00    +0.001 A 
ATOM      3  C   UNL     1       2.049  -7.500   0.000  0.00  0.00    +0.012 A 
ATOM      4  C   UNL     1       3.348  -6.750   0.000  0.00  0.00    +0.022 A 
ATOM      5  C   UNL     1       4.647  -7.500   0.000  0.00  0.00    +0.127 A 
ATOM      6  N   UNL     1       4.647  -9.000   0.000  0.00  0.00    -0.324 N 
ATOM      7  H   UNL     1       3.795  -9.492   0.000  0.00  0.00    +0.148 HD
ATOM     14  N   UNL     1       5.946  -6.750   0.000  0.00  0.00    -0.232 NA
ATOM     15  C   UNL     1       5.946  -5.250   0.000  0.00  0.00    +0.074 A 
ATOM     16  C   UNL     1       7.245  -4.500   0.000  0.00  0.00    +0.030 A 
ATOM     17  C   UNL     1       7.245  -3.000   0.000  0.00  0.00    +0.022 A 
ATOM     18  C   UNL     1       5.946  -2.250   0.000  0.00  0.00    +0.042 A 
ATOM     19 CL   UNL     1       5.946  -0.750   0.000  0.00  0.00    -0.084 Cl
ATOM     20  C   UNL     1       4.647  -3.000   0.000  0.00  0.00    +0.030 A 
ATOM     21  C   UNL     1       4.647  -4.500   0.000  0.00  0.00    +0.010 A 
ATOM     22  C   UNL     1       3.348  -5.250   0.000  0.00  0.00    -0.005 A 
ATOM     23  C   UNL     1       2.049  -4.500   0.000  0.00  0.00    +0.009 A 
ENDROOT
BRANCH   6   8
ATOM      8  CA  UNL     1       5.946  -9.750   0.000  0.00  0.00    +0.097 C 
BRANCH   8  12
ATOM     12  C   UNL     1       5.946 -11.250   0.000  0.00  0.00    +0.021 C 
ATOM     13  C   UNL     1       7.245 -12.000   0.000  0.00  0.00    +0.006 C 
ENDBRANCH   8  12
BRANCH   8   9
ATOM      9  C   UNL     1       7.245  -9.000   0.000  0.00  0.00    +0.178 C 
BRANCH   9  10
ATOM     10  O   UNL     1       7.245  -7.500   0.000  0.00  0.00    -0.393 OA
ATOM     11  H   UNL     1       8.085  -7.015   0.000  0.00  0.00    +0.209 HD
ENDBRANCH   9  10
ENDBRANCH   8   9
ENDBRANCH   6   8
TORSDOF 4