REMARK  Name = 152632
REMARK  6 active torsions:
REMARK  status: ('A' for Active; 'I' for Inactive)
REMARK    1  A    between atoms: C_1  and  O_6
REMARK    2  A    between atoms: C_2  and  O_3
REMARK    3  A    between atoms: O_3  and  C_8
REMARK    4  A    between atoms: O_6  and  C_10
REMARK    5  A    between atoms: C_8  and  C_9
REMARK    6  A    between atoms: C_10  and  C_11
REMARK                            x       y       z     vdW  Elec       q    Type
REMARK                         _______ _______ _______ _____ _____    ______ ____
ROOT
ATOM      1  C   UNL     1       0.617   1.065   0.000  0.00  0.00    +0.279 A 
ATOM      2  S   UNL     1       1.417  -0.203   0.000  0.00  0.00    +0.075 S 
ATOM      3  N   UNL     1       0.458  -1.357   0.000  0.00  0.00    -0.152 NA
ATOM      4  C   UNL     1      -0.935  -0.800   0.000  0.00  0.00    +0.329 A 
ATOM      8  N   UNL     1      -0.837   0.696   0.000  0.00  0.00    -0.151 NA
ENDROOT
BRANCH   4   5
ATOM      5  O   UNL     1      -2.204  -1.601   0.000  0.00  0.00    -0.462 OA
BRANCH   5   6
ATOM      6  C   UNL     1      -2.145  -3.100   0.000  0.00  0.00    +0.229 C 
ATOM      7  C   UNL     1      -3.414  -3.900   0.000  0.00  0.00    +0.048 C 
ENDBRANCH   5   6
ENDBRANCH   4   5
BRANCH   1   9
ATOM      9  O   UNL     1       1.173   2.459   0.000  0.00  0.00    -0.471 OA
BRANCH   9  10
ATOM     10  C   UNL     1       2.657   2.674   0.000  0.00  0.00    +0.228 C 
ATOM     11  C   UNL     1       3.213   4.067   0.000  0.00  0.00    +0.048 C 
ENDBRANCH   9  10
ENDBRANCH   1   9
TORSDOF 4