REMARK  Name = 15133
REMARK  2 active torsions:
REMARK  status: ('A' for Active; 'I' for Inactive)
REMARK    1  A    between atoms: N_1  and  C_11
REMARK    2  A    between atoms: C_3  and  O_12
REMARK                            x       y       z     vdW  Elec       q    Type
REMARK                         _______ _______ _______ _____ _____    ______ ____
ROOT
ATOM      1  N   UNL     1      -5.946  -3.750   0.000  0.00  0.00    -0.305 NA
ATOM      2  C   UNL     1      -7.245  -4.500   0.000  0.00  0.00    +0.104 C 
ATOM      3  C   UNL     1      -4.647  -4.500   0.000  0.00  0.00    +0.092 C 
ATOM      4  C   UNL     1      -3.348  -3.750   0.000  0.00  0.00    +0.062 C 
ATOM      5  C   UNL     1      -2.049  -4.500   0.000  0.00  0.00    +0.012 C 
ATOM      6  C   UNL     1      -0.750  -3.750   0.000  0.00  0.00    +0.029 C 
ATOM      7  C   UNL     1      -0.750  -2.250   0.000  0.00  0.00    +0.163 C 
ATOM      8  O   UNL     1      -2.049  -1.500   0.000  0.00  0.00    -0.348 OA
ATOM      9  C   UNL     1      -3.348  -2.250   0.000  0.00  0.00    +0.172 C 
ATOM     12  C   UNL     1      -4.647  -1.500   0.000  0.00  0.00    +0.080 C 
ATOM     13  C   UNL     1      -5.946  -2.250   0.000  0.00  0.00    +0.089 C 
ENDROOT
BRANCH   9  10
ATOM     10  O   UNL     1      -3.348  -0.750   0.000  0.00  0.00    -0.364 OA
ATOM     11  H   UNL     1      -2.508  -0.265   0.000  0.00  0.00    +0.213 HD
ENDBRANCH   9  10
TORSDOF 1