REMARK  Name = 14771
REMARK  0 active torsions:
REMARK  status: ('A' for Active; 'I' for Inactive)
REMARK                            x       y       z     vdW  Elec       q    Type
REMARK                         _______ _______ _______ _____ _____    ______ ____
ROOT
ATOM      1  O   UNL     1      -3.137  -3.206   0.000  0.00  0.00    -0.285 OA
ATOM      2  C   UNL     1      -2.255  -4.420   0.000  0.00  0.00    +0.212 C 
ATOM      3  C   UNL     1      -2.865  -5.790   0.000  0.00  0.00    +0.035 A 
ATOM      4  C   UNL     1      -4.357  -5.947   0.000  0.00  0.00    +0.012 A 
ATOM      5  C   UNL     1      -4.967  -7.317   0.000  0.00  0.00    +0.001 A 
ATOM      6  C   UNL     1      -4.086  -8.531   0.000  0.00  0.00    +0.001 A 
ATOM      7  C   UNL     1      -2.594  -8.374   0.000  0.00  0.00    +0.012 A 
ATOM      8  C   UNL     1      -1.984  -7.004   0.000  0.00  0.00    +0.035 A 
ATOM      9  C   UNL     1      -0.492  -6.847   0.000  0.00  0.00    +0.214 C 
ATOM     10  C   UNL     1       0.118  -5.476   0.000  0.00  0.00    +0.140 A 
ATOM     11  N   UNL     1       1.545  -5.013   0.000  0.00  0.00    -0.232 NA
ATOM     12  C   UNL     1       1.545  -3.513   0.000  0.00  0.00    +0.197 A 
ATOM     13  N   UNL     1       0.118  -3.049   0.000  0.00  0.00    -0.341 N 
ATOM     14  H   UNL     1      -0.345  -1.623   0.000  0.00  0.00    +0.167 HD
ATOM     15  O   UNL     1       0.390  -8.060   0.000  0.00  0.00    -0.285 OA
ATOM     16  C   UNL     1      -0.763  -4.263   0.000  0.00  0.00    +0.118 A 
ENDROOT
TORSDOF 0