REMARK  Name = 154316
REMARK  2 active torsions:
REMARK  status: ('A' for Active; 'I' for Inactive)
REMARK    1  A    between atoms: C_2  and  O_10
REMARK    2  A    between atoms: C_3  and  O_11
REMARK                            x       y       z     vdW  Elec       q    Type
REMARK                         _______ _______ _______ _____ _____    ______ ____
ROOT
ATOM      1  N   UNL     1       2.049   3.000   0.000  0.00  0.00    -0.141 NA
ATOM      2  C   UNL     1       2.049   1.500   0.000  0.00  0.00    +0.323 A 
ATOM      5  N   UNL     1       3.348   0.750   0.000  0.00  0.00    -0.157 NA
ATOM      6  C   UNL     1       4.647   1.500   0.000  0.00  0.00    +0.261 A 
ATOM      7  N   UNL     1       6.074   1.037   0.000  0.00  0.00    -0.197 NA
ATOM      8  C   UNL     1       6.955   2.250   0.000  0.00  0.00    +0.247 A 
ATOM      9  N   UNL     1       6.074   3.463   0.000  0.00  0.00    -0.148 NA
ATOM     10  N   UNL     1       4.647   3.000   0.000  0.00  0.00    -0.146 N 
ATOM     11  C   UNL     1       3.348   3.750   0.000  0.00  0.00    +0.324 A 
ENDROOT
BRANCH   2   3
ATOM      3  O   UNL     1       0.750   0.750   0.000  0.00  0.00    -0.478 OA
ATOM      4  H   UNL     1      -0.061   1.218   0.000  0.00  0.00    +0.295 HD
ENDBRANCH   2   3
BRANCH  11  12
ATOM     12  O   UNL     1       3.348   5.250   0.000  0.00  0.00    -0.478 OA
ATOM     13  H   UNL     1       4.160   5.718   0.000  0.00  0.00    +0.295 HD
ENDBRANCH  11  12
TORSDOF 2