REMARK  Name = 15362
REMARK  4 active torsions:
REMARK  status: ('A' for Active; 'I' for Inactive)
REMARK    1  A    between atoms: C_1  and  N_15
REMARK    2  A    between atoms: C_6  and  N_16
REMARK    3  A    between atoms: C_8  and  N_17
REMARK    4  A    between atoms: C_9  and  C_13
REMARK                            x       y       z     vdW  Elec       q    Type
REMARK                         _______ _______ _______ _____ _____    ______ ____
ROOT
ATOM      7  N   UNL     1      -8.169   0.851   0.000  0.00  0.00    -0.281 N 
ATOM      8  H   UNL     1      -8.169  -0.134   0.000  0.00  0.00    +0.155 HD
ATOM      9  C   UNL     1      -6.870   1.601   0.000  0.00  0.00    +0.248 C 
ATOM     10  O   UNL     1      -6.870   3.100   0.000  0.00  0.00    -0.270 OA
ENDROOT
BRANCH   7   6
ATOM      1  C   UNL     1     -10.767   3.850   0.000  0.00  0.00    +0.026 A 
ATOM      5  C   UNL     1      -9.468   3.100   0.000  0.00  0.00    +0.046 A 
ATOM      6  C   UNL     1      -9.468   1.601   0.000  0.00  0.00    +0.035 A 
ATOM     20  C   UNL     1     -10.767   0.851   0.000  0.00  0.00    +0.023 A 
ATOM     21  C   UNL     1     -12.066   1.601   0.000  0.00  0.00    +0.004 A 
ATOM     22  C   UNL     1     -12.066   3.100   0.000  0.00  0.00    +0.023 A 
BRANCH   1   2
ATOM      2  N   UNL     1     -10.767   5.351   0.000  0.00  0.00    -0.358 N 
ATOM      3  H   UNL     1     -11.620   5.843   0.000  0.00  0.00    +0.142 HD
ATOM      4  H   UNL     1      -9.915   5.843   0.000  0.00  0.00    +0.142 HD
ENDBRANCH   1   2
ENDBRANCH   7   6
BRANCH   9  11
ATOM     11  C   UNL     1      -5.571   0.851   0.000  0.00  0.00    +0.037 A 
ATOM     12  C   UNL     1      -5.571  -0.649   0.000  0.00  0.00    +0.015 A 
ATOM     13  C   UNL     1      -4.272  -1.400   0.000  0.00  0.00    +0.023 A 
ATOM     14  C   UNL     1      -2.973  -0.649   0.000  0.00  0.00    +0.025 A 
ATOM     18  C   UNL     1      -2.973   0.851   0.000  0.00  0.00    +0.023 A 
ATOM     19  C   UNL     1      -4.272   1.601   0.000  0.00  0.00    +0.015 A 
BRANCH  14  15
ATOM     15  N   UNL     1      -1.674  -1.400   0.000  0.00  0.00    -0.358 N 
ATOM     16  H   UNL     1      -0.821  -0.907   0.000  0.00  0.00    +0.142 HD
ATOM     17  H   UNL     1      -1.674  -2.384   0.000  0.00  0.00    +0.142 HD
ENDBRANCH  14  15
ENDBRANCH   9  11
TORSDOF 4