REMARK  Name = 147866
REMARK  5 active torsions:
REMARK  status: ('A' for Active; 'I' for Inactive)
REMARK    1  A    between atoms: N_1  and  C_12
REMARK    2  A    between atoms: N_2  and  C_5
REMARK    3  A    between atoms: C_4  and  N_21
REMARK    4  A    between atoms: C_11  and  C_19
REMARK    5  A    between atoms: C_16  and  C_20
REMARK                            x       y       z     vdW  Elec       q    Type
REMARK                         _______ _______ _______ _____ _____    ______ ____
ROOT
ATOM      1  N   UNL     1       2.873   5.524   0.000  0.00  0.00    -0.327 N 
ATOM      2  C   UNL     1       4.172   4.774   0.000  0.00  0.00    +0.124 C 
ATOM      3  C   UNL     1       5.471   5.524   0.000  0.00  0.00    +0.124 C 
ATOM      4  N   UNL     1       5.471   7.024   0.000  0.00  0.00    -0.325 N 
ATOM      5  C   UNL     1       4.172   7.774   0.000  0.00  0.00    +0.124 C 
ATOM     23  C   UNL     1       2.873   7.024   0.000  0.00  0.00    +0.124 C 
ENDROOT
BRANCH   1  15
ATOM     15  C   UNL     1       1.574   4.774   0.000  0.00  0.00    +0.033 A 
ATOM     16  C   UNL     1       1.574   3.275   0.000  0.00  0.00    +0.026 A 
ATOM     17  C   UNL     1       0.275   2.525   0.000  0.00  0.00    -0.049 A 
ATOM     18  C   UNL     1       0.275   1.025   0.000  0.00  0.00    +0.044 C 
ATOM     19  C   UNL     1      -1.025   3.275   0.000  0.00  0.00    +0.004 A 
ATOM     20  C   UNL     1      -1.025   4.774   0.000  0.00  0.00    +0.005 A 
ATOM     21  C   UNL     1       0.275   5.524   0.000  0.00  0.00    -0.029 A 
ATOM     22  C   UNL     1       0.275   7.024   0.000  0.00  0.00    +0.045 C 
ENDBRANCH   1  15
BRANCH   4   6
ATOM      6  C   UNL     1       6.770   7.774   0.000  0.00  0.00    +0.054 A 
ATOM      7  C   UNL     1       8.069   7.024   0.000  0.00  0.00    +0.044 A 
ATOM      8  C   UNL     1       9.368   7.774   0.000  0.00  0.00    +0.112 A 
ATOM      9  N   UNL     1       9.368   9.274   0.000  0.00  0.00    -0.261 NA
ATOM     10  C   UNL     1       8.069  10.025   0.000  0.00  0.00    +0.135 A 
ATOM     11  C   UNL     1       6.770   9.274   0.000  0.00  0.00    +0.064 A 
BRANCH  11  12
ATOM     12  N   UNL     1       5.471  10.025   0.000  0.00  0.00    -0.355 N 
ATOM     13  H   UNL     1       4.618   9.532   0.000  0.00  0.00    +0.142 HD
ATOM     14  H   UNL     1       5.471  11.009   0.000  0.00  0.00    +0.142 HD
ENDBRANCH  11  12
ENDBRANCH   4   6
TORSDOF 3