REMARK  Name = 146557
REMARK  6 active torsions:
REMARK  status: ('A' for Active; 'I' for Inactive)
REMARK    1  A    between atoms: N_2  and  C_27
REMARK    2  A    between atoms: N_4  and  C_11
REMARK    3  A    between atoms: C_7  and  C_29
REMARK    4  A    between atoms: C_9  and  C_30
REMARK    5  A    between atoms: C_14  and  C_17
REMARK    6  A    between atoms: C_21  and  C_27
REMARK                            x       y       z     vdW  Elec       q    Type
REMARK                         _______ _______ _______ _____ _____    ______ ____
ROOT
ATOM     10  N   UNL     1      -2.687 -11.454   0.000  0.00  0.00    -0.152 NA
ATOM     11  C   UNL     1      -1.388 -10.704   0.000  0.00  0.00    +0.171 A 
ATOM     12  N   UNL     1      -1.231  -9.213   0.000  0.00  0.00    -0.290 N 
ATOM     13  C   UNL     1       0.237  -8.901   0.000  0.00  0.00    +0.063 A 
ATOM     14  C   UNL     1       0.987 -10.200   0.000  0.00  0.00    +0.075 A 
ATOM     30  S   UNL     1      -0.017 -11.315   0.000  0.00  0.00    -0.060 S 
ENDROOT
BRANCH  12  22
ATOM     22  C   UNL     1      -2.736  -7.858   0.000  0.00  0.00    +0.052 A 
ATOM     23  C   UNL     1      -4.162  -8.321   0.000  0.00  0.00    +0.029 A 
ATOM     24  C   UNL     1      -5.277  -7.318   0.000  0.00  0.00    -0.048 A 
ATOM     25  C   UNL     1      -6.703  -7.781   0.000  0.00  0.00    +0.044 C 
ATOM     26  C   UNL     1      -4.965  -5.850   0.000  0.00  0.00    +0.004 A 
ATOM     27  C   UNL     1      -3.538  -5.387   0.000  0.00  0.00    +0.005 A 
ATOM     28  C   UNL     1      -2.424  -6.391   0.000  0.00  0.00    -0.027 A 
ATOM     29  C   UNL     1      -0.997  -5.927   0.000  0.00  0.00    +0.046 C 
ENDBRANCH  12  22
BRANCH  13  15
ATOM     15  C   UNL     1       1.060  -7.051   0.000  0.00  0.00    -0.001 A 
ATOM     16  C   UNL     1       2.552  -6.894   0.000  0.00  0.00    +0.011 A 
ATOM     17  C   UNL     1       3.162  -5.524   0.000  0.00  0.00    +0.016 A 
ATOM     18  C   UNL     1       2.280  -4.310   0.000  0.00  0.00    +0.018 A 
ATOM     19  C   UNL     1       0.789  -4.467   0.000  0.00  0.00    +0.016 A 
ATOM     20 BR   UNL     1       2.890  -2.940   0.000  0.00  0.00    -0.050 Br
ATOM     21  C   UNL     1       0.178  -5.837   0.000  0.00  0.00    +0.011 A 
ENDBRANCH  13  15
BRANCH  10   8
ATOM      8  C   UNL     1      -2.687 -12.954   0.000  0.00  0.00    +0.272 C 
ATOM      9  O   UNL     1      -3.986 -13.704   0.000  0.00  0.00    -0.268 OA
BRANCH   8   7
ATOM      1  F   UNL     1      -0.088 -11.454   0.000  0.00  0.00    -0.205 F 
ATOM      2  C   UNL     1      -0.088 -12.954   0.000  0.00  0.00    +0.136 A 
ATOM      3  C   UNL     1       1.211 -13.704   0.000  0.00  0.00    +0.039 A 
ATOM      4  C   UNL     1       1.211 -15.204   0.000  0.00  0.00    +0.003 A 
ATOM      5  C   UNL     1      -0.088 -15.954   0.000  0.00  0.00    +0.001 A 
ATOM      6  C   UNL     1      -1.388 -15.204   0.000  0.00  0.00    +0.016 A 
ATOM      7  C   UNL     1      -1.388 -13.704   0.000  0.00  0.00    +0.074 A 
ENDBRANCH   8   7
ENDBRANCH  10   8
TORSDOF 4