REMARK  Name = 146770
REMARK  5 active torsions:
REMARK  status: ('A' for Active; 'I' for Inactive)
REMARK    1  A    between atoms: C_4  and  C_21
REMARK    2  A    between atoms: C_5  and  N_23
REMARK    3  A    between atoms: C_9  and  N_20
REMARK    4  A    between atoms: C_12  and  N_19
REMARK    5  A    between atoms: C_16  and  N_19
REMARK                            x       y       z     vdW  Elec       q    Type
REMARK                         _______ _______ _______ _____ _____    ______ ____
ROOT
ATOM      7  C   UNL     1      -2.049   5.250   0.000  0.00  0.00    +0.031 A 
ATOM      8  C   UNL     1      -0.750   6.000   0.000  0.00  0.00    +0.025 A 
ATOM      9  C   UNL     1      -0.750   7.500   0.000  0.00  0.00    +0.025 A 
ATOM     10  C   UNL     1      -2.049   8.250   0.000  0.00  0.00    +0.034 A 
ATOM     24  C   UNL     1      -3.348   7.500   0.000  0.00  0.00    +0.025 A 
ATOM     25  C   UNL     1      -3.348   6.000   0.000  0.00  0.00    +0.025 A 
ENDROOT
BRANCH  10  11
ATOM     11  N   UNL     1      -2.049   9.750   0.000  0.00  0.00    -0.282 N 
ATOM     12  H   UNL     1      -1.196  10.242   0.000  0.00  0.00    +0.155 HD
ATOM     13  C   UNL     1      -3.348  10.500   0.000  0.00  0.00    +0.248 C 
ATOM     14  O   UNL     1      -4.647   9.750   0.000  0.00  0.00    -0.270 OA
BRANCH  13  15
ATOM     15  C   UNL     1      -3.348  12.000   0.000  0.00  0.00    +0.037 A 
ATOM     16  C   UNL     1      -2.049  12.750   0.000  0.00  0.00    +0.015 A 
ATOM     17  C   UNL     1      -2.049  14.250   0.000  0.00  0.00    +0.023 A 
ATOM     18  C   UNL     1      -3.348  15.000   0.000  0.00  0.00    +0.025 A 
ATOM     22  C   UNL     1      -4.647  14.250   0.000  0.00  0.00    +0.023 A 
ATOM     23  C   UNL     1      -4.647  12.750   0.000  0.00  0.00    +0.015 A 
BRANCH  18  19
ATOM     19  N   UNL     1      -3.348  16.500   0.000  0.00  0.00    -0.358 N 
ATOM     20  H   UNL     1      -4.201  16.992   0.000  0.00  0.00    +0.142 HD
ATOM     21  H   UNL     1      -2.495  16.992   0.000  0.00  0.00    +0.142 HD
ENDBRANCH  18  19
ENDBRANCH  13  15
ENDBRANCH  10  11
BRANCH   7   5
ATOM      5  N   UNL     1      -2.049   3.750   0.000  0.00  0.00    -0.314 N 
ATOM      6  H   UNL     1      -1.196   3.258   0.000  0.00  0.00    +0.152 HD
BRANCH   5   4
ATOM      1  N   UNL     1      -5.946   1.500   0.000  0.00  0.00    -0.263 NA
ATOM      2  C   UNL     1      -4.647   0.750   0.000  0.00  0.00    +0.112 A 
ATOM      3  C   UNL     1      -3.348   1.500   0.000  0.00  0.00    +0.043 A 
ATOM      4  C   UNL     1      -3.348   3.000   0.000  0.00  0.00    +0.034 A 
ATOM     26  C   UNL     1      -4.647   3.750   0.000  0.00  0.00    +0.043 A 
ATOM     27  C   UNL     1      -5.946   3.000   0.000  0.00  0.00    +0.112 A 
ENDBRANCH   5   4
ENDBRANCH   7   5
TORSDOF 5