REMARK  Name = 153172
REMARK  7 active torsions:
REMARK  status: ('A' for Active; 'I' for Inactive)
REMARK    1  A    between atoms: N_1  and  C_11
REMARK    2  A    between atoms: N_2  and  C_4
REMARK    3  A    between atoms: C_7  and  C_18
REMARK    4  A    between atoms: C_10  and  O_15
REMARK    5  A    between atoms: C_13  and  O_17
REMARK    6  A    between atoms: O_15  and  C_16
REMARK    7  A    between atoms: C_18  and  O_20
REMARK                            x       y       z     vdW  Elec       q    Type
REMARK                         _______ _______ _______ _____ _____    ______ ____
ROOT
ATOM      1  N   UNL     1      -2.324  -5.524   0.000  0.00  0.00    -0.149 NA
ATOM      2  N   UNL     1      -2.324  -7.024   0.000  0.00  0.00    -0.148 NA
ENDROOT
BRANCH   2   3
ATOM      3  C   UNL     1      -1.025  -7.774   0.000  0.00  0.00    +0.100 A 
ATOM      4  C   UNL     1      -1.025  -9.274   0.000  0.00  0.00    +0.086 A 
ATOM      9  C   UNL     1       0.275 -10.025   0.000  0.00  0.00    +0.017 A 
ATOM     10  C   UNL     1       1.574  -9.274   0.000  0.00  0.00    +0.001 A 
ATOM     11  C   UNL     1       1.574  -7.774   0.000  0.00  0.00    +0.002 A 
ATOM     12  C   UNL     1       0.275  -7.024   0.000  0.00  0.00    +0.030 A 
BRANCH   4   5
ATOM      5  C   UNL     1      -2.324 -10.025   0.000  0.00  0.00    +0.339 C 
ATOM      8  O   UNL     1      -3.623  -9.274   0.000  0.00  0.00    -0.245 OA
BRANCH   5   6
ATOM      6  O   UNL     1      -2.324 -11.525   0.000  0.00  0.00    -0.477 OA
ATOM      7  H   UNL     1      -3.135 -11.993   0.000  0.00  0.00    +0.295 HD
ENDBRANCH   5   6
ENDBRANCH   4   5
ENDBRANCH   2   3
BRANCH   1  13
ATOM     13  C   UNL     1      -3.623  -4.774   0.000  0.00  0.00    +0.090 A 
ATOM     14  C   UNL     1      -4.922  -5.524   0.000  0.00  0.00    +0.033 A 
ATOM     15  C   UNL     1      -6.221  -4.774   0.000  0.00  0.00    +0.051 A 
ATOM     16  C   UNL     1      -6.221  -3.275   0.000  0.00  0.00    +0.159 A 
ATOM     19  C   UNL     1      -4.922  -2.525   0.000  0.00  0.00    +0.163 A 
ATOM     22  C   UNL     1      -3.623  -3.275   0.000  0.00  0.00    +0.079 A 
BRANCH  16  17
ATOM     17  O   UNL     1      -7.520  -2.525   0.000  0.00  0.00    -0.503 OA
ATOM     18  H   UNL     1      -7.520  -1.588   0.000  0.00  0.00    +0.292 HD
ENDBRANCH  16  17
BRANCH  19  20
ATOM     20  O   UNL     1      -4.922  -1.025   0.000  0.00  0.00    -0.491 OA
ATOM     21  C   UNL     1      -6.221  -0.275   0.000  0.00  0.00    +0.277 C 
ENDBRANCH  19  20
ENDBRANCH   1  13
TORSDOF 6