REMARK  Name = 151262
REMARK  3 active torsions:
REMARK  status: ('A' for Active; 'I' for Inactive)
REMARK    1  A    between atoms: C_6  and  C_17
REMARK    2  A    between atoms: C_10  and  C_14
REMARK    3  A    between atoms: C_14  and  C_15
REMARK                            x       y       z     vdW  Elec       q    Type
REMARK                         _______ _______ _______ _____ _____    ______ ____
ROOT
ATOM      6  C   UNL     1      -3.522  -5.899   0.000  0.00  0.00    +0.059 C 
ATOM      7  C   UNL     1      -2.223  -6.649   0.000  0.00  0.00    +0.029 C 
ENDROOT
BRANCH   6   5
ATOM      1 BR   UNL     1      -8.718  -8.899   0.000  0.00  0.00    -0.050 Br
ATOM      2  C   UNL     1      -7.419  -8.149   0.000  0.00  0.00    +0.018 A 
ATOM      3  C   UNL     1      -6.120  -8.899   0.000  0.00  0.00    +0.016 A 
ATOM      4  C   UNL     1      -4.821  -8.149   0.000  0.00  0.00    +0.010 A 
ATOM      5  C   UNL     1      -4.821  -6.649   0.000  0.00  0.00    -0.008 A 
ATOM     16  C   UNL     1      -6.120  -5.899   0.000  0.00  0.00    +0.010 A 
ATOM     17  C   UNL     1      -7.419  -6.649   0.000  0.00  0.00    +0.016 A 
ENDBRANCH   6   5
BRANCH   7   8
ATOM      8  C   UNL     1      -0.924  -5.899   0.000  0.00  0.00    -0.006 A 
ATOM      9  C   UNL     1      -0.924  -4.399   0.000  0.00  0.00    +0.118 A 
ATOM     10  N   UNL     1       0.375  -3.650   0.000  0.00  0.00    -0.263 NA
ATOM     11  C   UNL     1       1.674  -4.399   0.000  0.00  0.00    +0.111 A 
ATOM     12  C   UNL     1       1.674  -5.899   0.000  0.00  0.00    +0.020 A 
ATOM     13  C   UNL     1       0.375  -6.649   0.000  0.00  0.00    +0.011 A 
ENDBRANCH   7   8
BRANCH   6  14
ATOM     14  C   UNL     1      -3.522  -4.399   0.000  0.00  0.00    +0.100 C 
ATOM     15  N   UNL     1      -3.522  -2.900   0.000  0.00  0.00    -0.191 NA
ENDBRANCH   6  14
TORSDOF 3