REMARK  Name = 152551
REMARK  3 active torsions:
REMARK  status: ('A' for Active; 'I' for Inactive)
REMARK    1  A    between atoms: N_1  and  C_16
REMARK    2  A    between atoms: C_4  and  C_17
REMARK    3  A    between atoms: C_15  and  C_17
REMARK                            x       y       z     vdW  Elec       q    Type
REMARK                         _______ _______ _______ _____ _____    ______ ____
ROOT
ATOM      1  N   UNL     1      -7.531   1.589   0.000  0.00  0.00    -0.340 N 
ATOM      2  C   UNL     1      -7.068   3.015   0.000  0.00  0.00    +0.149 C 
ATOM      3  C   UNL     1      -6.649   0.375   0.000  0.00  0.00    +0.090 A 
ATOM     12  C   UNL     1      -7.531  -0.839   0.000  0.00  0.00    +0.039 A 
ATOM     13  C   UNL     1      -8.958  -0.375   0.000  0.00  0.00    +0.001 A 
ATOM     14  C   UNL     1     -10.257  -1.125   0.000  0.00  0.00    +0.010 A 
ATOM     15  C   UNL     1     -11.556  -0.375   0.000  0.00  0.00    +0.001 A 
ATOM     16  C   UNL     1     -11.556   1.125   0.000  0.00  0.00    +0.002 A 
ATOM     17  C   UNL     1     -10.257   1.875   0.000  0.00  0.00    +0.026 A 
ATOM     18  C   UNL     1      -8.958   1.125   0.000  0.00  0.00    +0.049 A 
ENDROOT
BRANCH   3   4
ATOM      4  C   UNL     1      -5.149   0.375   0.000  0.00  0.00    +0.209 C 
ATOM      5  O   UNL     1      -4.399   1.674   0.000  0.00  0.00    -0.285 OA
BRANCH   4   6
ATOM      6  C   UNL     1      -4.399  -0.924   0.000  0.00  0.00    +0.027 A 
ATOM      7  C   UNL     1      -5.149  -2.223   0.000  0.00  0.00    +0.031 A 
ATOM      8  C   UNL     1      -4.399  -3.522   0.000  0.00  0.00    +0.111 A 
ATOM      9  N   UNL     1      -2.900  -3.522   0.000  0.00  0.00    -0.263 NA
ATOM     10  C   UNL     1      -2.150  -2.223   0.000  0.00  0.00    +0.111 A 
ATOM     11  C   UNL     1      -2.900  -0.924   0.000  0.00  0.00    +0.031 A 
ENDBRANCH   4   6
ENDBRANCH   3   4
TORSDOF 2