REMARK  Name = 150982
REMARK  2 active torsions:
REMARK  status: ('A' for Active; 'I' for Inactive)
REMARK    1  A    between atoms: C_9  and  C_11
REMARK    2  A    between atoms: C_12  and  N_13
REMARK                            x       y       z     vdW  Elec       q    Type
REMARK                         _______ _______ _______ _____ _____    ______ ____
ROOT
ATOM      1  H   UNL     1      -2.185  -5.284   0.000  0.00  0.00    +0.166 HD
ATOM      2  N   UNL     1      -1.181  -6.399   0.000  0.00  0.00    -0.354 N 
ATOM      3  C   UNL     1       0.311  -6.242   0.000  0.00  0.00    +0.046 A 
ATOM      9  C   UNL     1       0.921  -7.612   0.000  0.00  0.00    +0.035 A 
ATOM     10  C   UNL     1      -0.194  -8.616   0.000  0.00  0.00    +0.000 A 
ATOM     11  C   UNL     1      -0.194 -10.116   0.000  0.00  0.00    +0.010 A 
ATOM     12  C   UNL     1      -1.493 -10.866   0.000  0.00  0.00    +0.001 A 
ATOM     13  C   UNL     1      -2.792 -10.116   0.000  0.00  0.00    +0.002 A 
ATOM     14  C   UNL     1      -2.792  -8.616   0.000  0.00  0.00    +0.026 A 
ATOM     15  C   UNL     1      -1.493  -7.866   0.000  0.00  0.00    +0.047 A 
ENDROOT
BRANCH   3   4
ATOM      4  C   UNL     1       1.061  -4.943   0.000  0.00  0.00    +0.101 C 
ATOM      5  C   UNL     1       2.561  -4.943   0.000  0.00  0.00    +0.384 C 
BRANCH   5   6
ATOM      6  N   UNL     1       3.311  -3.644   0.000  0.00  0.00    +0.072 N 
ATOM      7  O   UNL     1       2.561  -2.345   0.000  0.00  0.00    +0.041 OA
ATOM      8  O   UNL     1       4.811  -3.644   0.000  0.00  0.00    -0.577 OA
ENDBRANCH   5   6
ENDBRANCH   3   4
TORSDOF 2