REMARK  Name = 148832
REMARK  9 active torsions:
REMARK  status: ('A' for Active; 'I' for Inactive)
REMARK    1  A    between atoms: C_2  and  C_8
REMARK    2  A    between atoms: C_2  and  C_9
REMARK    3  A    between atoms: C_4  and  C_10
REMARK    4  A    between atoms: C_4  and  O_12
REMARK    5  A    between atoms: C_5  and  C_11
REMARK    6  A    between atoms: C_13  and  C_14
REMARK    7  A    between atoms: C_14  and  C_15
REMARK    8  A    between atoms: C_16  and  C_17
REMARK    9  A    between atoms: C_17  and  O_19
REMARK                            x       y       z     vdW  Elec       q    Type
REMARK                         _______ _______ _______ _____ _____    ______ ____
ROOT
ATOM      1  O   UNL     1      -1.025   3.275   0.000  0.00  0.00    -0.293 OA
ATOM      2  C   UNL     1       0.275   4.024   0.000  0.00  0.00    +0.157 C 
ATOM      3  C   UNL     1       1.574   3.275   0.000  0.00  0.00    +0.048 C 
ATOM      4  C   UNL     1       2.873   4.024   0.000  0.00  0.00    -0.034 C 
ATOM      5  C   UNL     1       4.172   3.275   0.000  0.00  0.00    +0.042 C 
ATOM      6  C   UNL     1       2.873   5.524   0.000  0.00  0.00    +0.111 C 
ATOM     18  C   UNL     1       1.574   6.274   0.000  0.00  0.00    +0.008 C 
ATOM     19  C   UNL     1       2.538   7.424   0.000  0.00  0.00    +0.015 C 
ATOM     20  C   UNL     1       0.609   7.424   0.000  0.00  0.00    +0.015 C 
ATOM     21  C   UNL     1       0.275   5.524   0.000  0.00  0.00    +0.088 C 
ENDROOT
BRANCH   6   7
ATOM      7  O   UNL     1       4.350   5.264   0.000  0.00  0.00    -0.380 OA
ATOM      8  H   UNL     1       4.682   4.352   0.000  0.00  0.00    +0.211 HD
ENDBRANCH   6   7
BRANCH   6   9
ATOM      9  C   UNL     1       3.386   6.934   0.000  0.00  0.00    +0.012 C 
ATOM     10  C   UNL     1       4.863   7.194   0.000  0.00  0.00    +0.002 C 
BRANCH  10  11
ATOM     11  C   UNL     1       5.376   8.604   0.000  0.00  0.00    -0.044 C 
ATOM     12  C   UNL     1       6.853   8.864   0.000  0.00  0.00    +0.094 C 
ATOM     17  C   UNL     1       4.412   9.753   0.000  0.00  0.00    +0.044 C 
BRANCH  12  13
ATOM     13  C   UNL     1       7.366  10.274   0.000  0.00  0.00    +0.330 C 
ATOM     16  O   UNL     1       8.843  10.535   0.000  0.00  0.00    -0.246 OA
BRANCH  13  14
ATOM     14  O   UNL     1       6.402  11.423   0.000  0.00  0.00    -0.478 OA
ATOM     15  H   UNL     1       6.722  12.304   0.000  0.00  0.00    +0.295 HD
ENDBRANCH  13  14
ENDBRANCH  12  13
ENDBRANCH  10  11
ENDBRANCH   6   9
TORSDOF 5