REMARK  Name = 151721
REMARK  12 active torsions:
REMARK  status: ('A' for Active; 'I' for Inactive)
REMARK    1  A    between atoms: C_7  and  C_15
REMARK    2  A    between atoms: C_7  and  C_22
REMARK    3  A    between atoms: C_9  and  C_11
REMARK    4  A    between atoms: C_11  and  O_13
REMARK    5  A    between atoms: O_13  and  C_14
REMARK    6  A    between atoms: C_15  and  C_16
REMARK    7  A    between atoms: C_16  and  C_17
REMARK    8  A    between atoms: C_17  and  O_19
REMARK    9  A    between atoms: O_19  and  C_20
REMARK   10  A    between atoms: C_20  and  C_21
REMARK   11  A    between atoms: C_22  and  O_24
REMARK   12  A    between atoms: O_24  and  C_25
REMARK                            x       y       z     vdW  Elec       q    Type
REMARK                         _______ _______ _______ _____ _____    ______ ____
ROOT
ATOM      1  O   UNL     1      -3.883  -1.059   0.000  0.00  0.00    -0.296 OA
ATOM      2  C   UNL     1      -5.182  -1.809   0.000  0.00  0.00    +0.155 C 
ATOM      3  C   UNL     1      -5.182  -3.309   0.000  0.00  0.00    +0.157 C 
ATOM     15  C   UNL     1      -6.481  -4.059   0.000  0.00  0.00    +0.057 C 
ATOM     20  C   UNL     1      -7.780  -3.309   0.000  0.00  0.00    -0.015 C 
ATOM     21  C   UNL     1      -9.206  -3.772   0.000  0.00  0.00    +0.028 C 
ATOM     22  C   UNL     1     -10.088  -2.559   0.000  0.00  0.00    +0.004 C 
ATOM     23  C   UNL     1      -9.206  -1.345   0.000  0.00  0.00    +0.001 C 
ATOM     24  C   UNL     1      -7.780  -1.809   0.000  0.00  0.00    +0.008 C 
ATOM     25  C   UNL     1      -6.481  -1.059   0.000  0.00  0.00    +0.076 C 
ENDROOT
BRANCH   3   4
ATOM      4  C   UNL     1      -3.704  -3.048   0.000  0.00  0.00    +0.325 C 
ATOM      7  O   UNL     1      -2.740  -4.197   0.000  0.00  0.00    -0.249 OA
BRANCH   4   5
ATOM      5  O   UNL     1      -3.191  -1.639   0.000  0.00  0.00    -0.467 OA
ATOM      6  C   UNL     1      -1.714  -1.378   0.000  0.00  0.00    +0.280 C 
ENDBRANCH   4   5
ENDBRANCH   3   4
BRANCH  15  16
ATOM     16  C   UNL     1      -6.481  -5.559   0.000  0.00  0.00    +0.336 C 
ATOM     19  O   UNL     1      -5.182  -6.309   0.000  0.00  0.00    -0.245 OA
BRANCH  16  17
ATOM     17  O   UNL     1      -7.780  -6.309   0.000  0.00  0.00    -0.465 OA
ATOM     18  C   UNL     1      -9.079  -5.559   0.000  0.00  0.00    +0.280 C 
ENDBRANCH  16  17
ENDBRANCH  15  16
BRANCH   3   8
ATOM      8  C   UNL     1      -4.669  -4.718   0.000  0.00  0.00    +0.042 C 
BRANCH   8   9
ATOM      9  C   UNL     1      -3.191  -4.979   0.000  0.00  0.00    +0.122 C 
BRANCH   9  10
ATOM     10  C   UNL     1      -2.678  -6.388   0.000  0.00  0.00    +0.307 C 
ATOM     14  O   UNL     1      -1.201  -6.649   0.000  0.00  0.00    -0.251 OA
BRANCH  10  11
ATOM     11  O   UNL     1      -3.643  -7.537   0.000  0.00  0.00    -0.465 OA
BRANCH  11  12
ATOM     12  C   UNL     1      -5.120  -7.277   0.000  0.00  0.00    +0.229 C 
ATOM     13  C   UNL     1      -6.084  -8.426   0.000  0.00  0.00    +0.048 C 
ENDBRANCH  11  12
ENDBRANCH  10  11
ENDBRANCH   9  10
ENDBRANCH   8   9
ENDBRANCH   3   8
TORSDOF 9