REMARK  Name = 
REMARK  17 active torsions:
REMARK  status: ('A' for Active; 'I' for Inactive)
REMARK    1  A    between atoms: C_1  and  C_2
REMARK    2  A    between atoms: C_3  and  C_4
REMARK    3  A    between atoms: C_4  and  O_5
REMARK    4  A    between atoms: O_5  and  C_6
REMARK    5  A    between atoms: C_9  and  C_10
REMARK    6  A    between atoms: C_10  and  N_11
REMARK    7  A    between atoms: N_11  and  C_12
REMARK    8  A    between atoms: C_12  and  C_13
REMARK    9  A    between atoms: C_13  and  O_15
REMARK   10  A    between atoms: C_13  and  C_16
REMARK   11  A    between atoms: C_16  and  C_17
REMARK   12  A    between atoms: C_17  and  O_18
REMARK   13  A    between atoms: C_20  and  O_21
REMARK   14  A    between atoms: O_21  and  C_22
REMARK   15  A    between atoms: C_22  and  C_23
REMARK   16  A    between atoms: C_25  and  C_26
REMARK   17  A    between atoms: C_35  and  C_36
REMARK                            x       y       z     vdW  Elec       q    Type
REMARK                         _______ _______ _______ _____ _____    ______ ____
ROOT
ATOM     20  C   UNL     1      -3.646   6.967  -7.549  0.00  0.00    +0.124 A 
ATOM     21  C   UNL     1      -4.309   5.744  -7.669  0.00  0.00    +0.091 A 
ATOM     22  C   UNL     1      -5.057   5.232  -6.604  0.00  0.00    +0.129 A 
ATOM     33  C   UNL     1      -5.127   5.945  -5.393  0.00  0.00    +0.008 A 
ATOM     46  C   UNL     1      -4.451   7.172  -5.290  0.00  0.00    +0.012 A 
ATOM     47  C   UNL     1      -3.718   7.682  -6.357  0.00  0.00    +0.046 A 
ENDROOT
BRANCH  20  19
ATOM     19  O   UNL     1      -2.931   7.345  -8.651  0.00  0.00    -0.487 OA
BRANCH  19  18
ATOM     18  C   UNL     1      -2.534   8.710  -8.680  0.00  0.00    +0.264 C 
BRANCH  18  17
ATOM      1  C   UNL     1      -4.453   9.274 -10.838  0.00  0.00    +0.045 C 
ATOM      2  C   UNL     1      -2.969   9.435 -11.096  0.00  0.00    -0.036 A 
ATOM      3  C   UNL     1      -2.467   9.954 -12.321  0.00  0.00    -0.014 A 
ATOM     14  C   UNL     1      -1.074   9.847 -12.540  0.00  0.00    +0.009 A 
ATOM     15  C   UNL     1      -0.203   9.322 -11.585  0.00  0.00    +0.001 A 
ATOM     16  C   UNL     1      -0.692   8.956 -10.343  0.00  0.00    +0.007 A 
ATOM     17  C   UNL     1      -2.063   9.042 -10.074  0.00  0.00    -0.007 A 
BRANCH   3   4
ATOM      4  C   UNL     1      -3.317  10.628 -13.349  0.00  0.00    -0.014 A 
ATOM      5  C   UNL     1      -3.021  10.550 -14.723  0.00  0.00    +0.058 A 
ATOM      6  C   UNL     1      -3.801  11.212 -15.677  0.00  0.00    +0.163 A 
ATOM      7  O   UNL     1      -3.384  11.119 -16.980  0.00  0.00    -0.485 OA
ATOM      8  C   UNL     1      -4.387  11.574 -17.895  0.00  0.00    +0.270 C 
ATOM      9  C   UNL     1      -5.064  12.841 -17.398  0.00  0.00    +0.270 C 
ATOM     10  O   UNL     1      -5.740  12.604 -16.161  0.00  0.00    -0.485 OA
ATOM     11  C   UNL     1      -4.923  11.942 -15.284  0.00  0.00    +0.162 A 
ATOM     12  C   UNL     1      -5.247  12.033 -13.940  0.00  0.00    +0.050 A 
ATOM     13  C   UNL     1      -4.423  11.426 -12.989  0.00  0.00    +0.012 A 
ENDBRANCH   3   4
ENDBRANCH  18  17
ENDBRANCH  19  18
ENDBRANCH  20  19
BRANCH  22  23
ATOM     23  O   UNL     1      -5.671   4.007  -6.636  0.00  0.00    -0.487 OA
BRANCH  23  24
ATOM     24  C   UNL     1      -6.209   3.598  -7.895  0.00  0.00    +0.264 C 
BRANCH  24  25
ATOM     25  C   UNL     1      -6.877   2.257  -7.695  0.00  0.00    -0.009 A 
ATOM     26  C   UNL     1      -6.429   1.125  -8.393  0.00  0.00    +0.007 A 
ATOM     27  C   UNL     1      -7.024  -0.122  -8.184  0.00  0.00    +0.002 A 
ATOM     28  C   UNL     1      -8.072  -0.254  -7.273  0.00  0.00    +0.019 A 
ATOM     29  C   UNL     1      -8.534   0.868  -6.575  0.00  0.00    +0.052 A 
ATOM     32  C   UNL     1      -7.942   2.119  -6.792  0.00  0.00    +0.025 A 
BRANCH  29  30
ATOM     30  C   UNL     1      -9.613   0.737  -5.635  0.00  0.00    +0.099 C 
ATOM     31  N   UNL     1     -10.477   0.626  -4.870  0.00  0.00    -0.191 NA
ENDBRANCH  29  30
ENDBRANCH  24  25
ENDBRANCH  23  24
ENDBRANCH  22  23
BRANCH  33  34
ATOM     34  C   UNL     1      -5.832   5.360  -4.184  0.00  0.00    +0.120 C 
BRANCH  34  35
ATOM     35  N   UNL     1      -6.298   6.394  -3.254  0.00  0.00    -0.309 NA
ATOM     36  H   UNL     1      -7.011   6.962  -3.723  0.00  0.00    +0.122 HD
BRANCH  35  37
ATOM     37  C   UNL     1      -6.925   5.806  -2.065  0.00  0.00    +0.113 C 
BRANCH  37  38
ATOM     38  C   UNL     1      -7.480   6.911  -1.142  0.00  0.00    +0.139 C 
BRANCH  38  44
ATOM     44  O   UNL     1      -8.470   7.648  -1.875  0.00  0.00    -0.390 OA
ATOM     45  H   UNL     1      -8.937   8.204  -1.217  0.00  0.00    +0.210 HD
ENDBRANCH  38  44
BRANCH  38  39
ATOM     39  C   UNL     1      -6.375   7.852  -0.649  0.00  0.00    +0.153 C 
BRANCH  39  40
ATOM     40  C   UNL     1      -6.920   8.862   0.325  0.00  0.00    +0.307 C 
ATOM     41  O   UNL     1      -8.096   8.959   0.645  0.00  0.00    -0.251 OA
BRANCH  40  42
ATOM     42  O   UNL     1      -5.967   9.690   0.809  0.00  0.00    -0.481 OA
ATOM     43  H   UNL     1      -5.077   9.525   0.440  0.00  0.00    +0.295 HD
ENDBRANCH  40  42
ENDBRANCH  39  40
ENDBRANCH  38  39
ENDBRANCH  37  38
ENDBRANCH  35  37
ENDBRANCH  34  35
ENDBRANCH  33  34
TORSDOF 16
