REMARK  Name = 
REMARK  16 active torsions:
REMARK  status: ('A' for Active; 'I' for Inactive)
REMARK    1  A    between atoms: C_1  and  C_2
REMARK    2  A    between atoms: C_3  and  C_4
REMARK    3  A    between atoms: C_4  and  O_5
REMARK    4  A    between atoms: O_5  and  C_6
REMARK    5  A    between atoms: C_10  and  C_11
REMARK    6  A    between atoms: C_11  and  N_12
REMARK    7  A    between atoms: N_12  and  CA_13
REMARK    8  A    between atoms: CA_13  and  C_15
REMARK    9  A    between atoms: CA_13  and  CB_18
REMARK   10  A    between atoms: C_15  and  O_16
REMARK   11  A    between atoms: CB_18  and  OG_19
REMARK   12  A    between atoms: C_20  and  O_21
REMARK   13  A    between atoms: O_21  and  C_22
REMARK   14  A    between atoms: C_22  and  C_23
REMARK   15  A    between atoms: C_25  and  C_26
REMARK   16  A    between atoms: C_35  and  C_36
REMARK                            x       y       z     vdW  Elec       q    Type
REMARK                         _______ _______ _______ _____ _____    ______ ____
ROOT
ATOM     20  C   UNL     1      -5.806  11.999   3.528  0.00  0.00    +0.143 A 
ATOM     21  C   UNL     1      -7.005  11.713   2.862  0.00  0.00    +0.093 A 
ATOM     22  C   UNL     1      -7.076  10.648   1.956  0.00  0.00    +0.129 A 
ATOM     33  C   UNL     1      -5.938   9.868   1.685  0.00  0.00    +0.010 A 
ATOM     45  C   UNL     1      -4.762  10.113   2.406  0.00  0.00    +0.032 A 
ATOM     46  C   UNL     1      -4.696  11.170   3.315  0.00  0.00    +0.083 A 
ATOM     47 CL   UNL     1      -3.197  11.443   4.132  0.00  0.00    -0.080 Cl
ENDROOT
BRANCH  20  19
ATOM     19  O   UNL     1      -5.620  13.060   4.371  0.00  0.00    -0.486 OA
BRANCH  19  18
ATOM     18  C   UNL     1      -6.682  13.998   4.514  0.00  0.00    +0.265 C 
BRANCH  18  17
ATOM      1  C   UNL     1      -6.608  16.801   3.464  0.00  0.00    +0.045 C 
ATOM      2  C   UNL     1      -6.309  16.520   4.921  0.00  0.00    -0.036 A 
ATOM      3  C   UNL     1      -6.099  17.580   5.852  0.00  0.00    -0.014 A 
ATOM     14  C   UNL     1      -5.571  17.231   7.116  0.00  0.00    +0.009 A 
ATOM     15  C   UNL     1      -5.332  15.908   7.483  0.00  0.00    +0.001 A 
ATOM     16  C   UNL     1      -5.691  14.884   6.623  0.00  0.00    +0.007 A 
ATOM     17  C   UNL     1      -6.203  15.168   5.349  0.00  0.00    -0.007 A 
BRANCH   3   4
ATOM      4  C   UNL     1      -6.445  19.009   5.577  0.00  0.00    -0.014 A 
ATOM      5  C   UNL     1      -5.699  20.076   6.116  0.00  0.00    +0.058 A 
ATOM      6  C   UNL     1      -6.048  21.410   5.871  0.00  0.00    +0.163 A 
ATOM      7  O   UNL     1      -5.287  22.368   6.490  0.00  0.00    -0.485 OA
ATOM      8  C   UNL     1      -5.532  23.674   5.957  0.00  0.00    +0.270 C 
ATOM      9  C   UNL     1      -7.015  23.913   5.720  0.00  0.00    +0.270 C 
ATOM     10  O   UNL     1      -7.530  22.990   4.757  0.00  0.00    -0.485 OA
ATOM     11  C   UNL     1      -7.137  21.712   5.054  0.00  0.00    +0.162 A 
ATOM     12  C   UNL     1      -7.892  20.686   4.507  0.00  0.00    +0.050 A 
ATOM     13  C   UNL     1      -7.576  19.358   4.810  0.00  0.00    +0.012 A 
ENDBRANCH   3   4
ENDBRANCH  18  17
ENDBRANCH  19  18
ENDBRANCH  20  19
BRANCH  22  23
ATOM     23  O   UNL     1      -8.195  10.347   1.226  0.00  0.00    -0.487 OA
BRANCH  23  24
ATOM     24  C   UNL     1      -9.455  10.649   1.832  0.00  0.00    +0.266 C 
BRANCH  24  25
ATOM     25  C   UNL     1     -10.474   9.719   1.242  0.00  0.00    +0.009 A 
ATOM     26  C   UNL     1     -11.610  10.194   0.598  0.00  0.00    +0.117 A 
ATOM     27  N   UNL     1     -12.565   9.398   0.063  0.00  0.00    -0.262 NA
ATOM     28  C   UNL     1     -12.387   8.063   0.174  0.00  0.00    +0.129 A 
ATOM     29  C   UNL     1     -11.292   7.485   0.791  0.00  0.00    +0.070 A 
ATOM     32  C   UNL     1     -10.320   8.328   1.333  0.00  0.00    +0.028 A 
BRANCH  29  30
ATOM     30  C   UNL     1     -11.167   6.065   0.874  0.00  0.00    +0.101 C 
ATOM     31  N   UNL     1     -11.057   4.913   0.949  0.00  0.00    -0.191 NA
ENDBRANCH  29  30
ENDBRANCH  24  25
ENDBRANCH  23  24
ENDBRANCH  22  23
BRANCH  33  34
ATOM     34  C   ACE A   0      -5.944   8.808   0.604  0.00  0.00    +0.121 C 
BRANCH  34  35
ATOM     35  N   UNL     1      -6.235   9.341  -0.743  0.00  0.00    -0.298 NA
ATOM     36  H   UNL     1      -7.151   9.804  -0.637  0.00  0.00    +0.123 HD
BRANCH  35  37
ATOM     37  CA  UNL     1      -5.269  10.415  -1.174  0.00  0.00    +0.189 C 
BRANCH  37  41
ATOM     41  C   UNL     1      -5.660  10.908  -2.577  0.00  0.00    +0.324 C 
ATOM     42  OXT UNL     1      -5.199  11.904  -3.115  0.00  0.00    -0.249 OA
BRANCH  41  43
ATOM     43  O   UNL     1      -6.623  10.140  -3.150  0.00  0.00    -0.479 OA
ATOM     44  H   UNL     1      -6.766   9.366  -2.558  0.00  0.00    +0.295 HD
ENDBRANCH  41  43
ENDBRANCH  37  41
BRANCH  37  38
ATOM     38  CB  UNL     1      -3.784  10.022  -1.189  0.00  0.00    +0.186 C 
BRANCH  38  39
ATOM     39  O   UNL     1      -3.531   8.863  -1.978  0.00  0.00    -0.393 OA
ATOM     40  H   UNL     1      -3.882   8.093  -1.500  0.00  0.00    +0.209 HD
ENDBRANCH  38  39
ENDBRANCH  37  38
ENDBRANCH  35  37
ENDBRANCH  34  35
ENDBRANCH  33  34
TORSDOF 15
