REMARK  Name = 
REMARK  17 active torsions:
REMARK  status: ('A' for Active; 'I' for Inactive)
REMARK    1  A    between atoms: C_1  and  C_2
REMARK    2  A    between atoms: C_3  and  C_4
REMARK    3  A    between atoms: C_4  and  O_5
REMARK    4  A    between atoms: O_5  and  C_6
REMARK    5  A    between atoms: C_9  and  C_10
REMARK    6  A    between atoms: C_10  and  N_11
REMARK    7  A    between atoms: N_11  and  C_12
REMARK    8  A    between atoms: C_12  and  C_13
REMARK    9  A    between atoms: C_13  and  O_15
REMARK   10  A    between atoms: C_13  and  C_16
REMARK   11  A    between atoms: C_16  and  C_17
REMARK   12  A    between atoms: C_17  and  O_18
REMARK   13  A    between atoms: C_20  and  O_21
REMARK   14  A    between atoms: O_21  and  C_22
REMARK   15  A    between atoms: C_22  and  C_23
REMARK   16  A    between atoms: C_25  and  C_26
REMARK   17  A    between atoms: C_36  and  C_37
REMARK                            x       y       z     vdW  Elec       q    Type
REMARK                         _______ _______ _______ _____ _____    ______ ____
ROOT
ATOM     20  C   UNL     1       0.202   3.305   0.142  0.00  0.00    +0.124 A 
ATOM     21  C   UNL     1       0.688   4.615   0.237  0.00  0.00    +0.091 A 
ATOM     22  C   UNL     1      -0.181   5.710   0.155  0.00  0.00    +0.129 A 
ATOM     34  C   UNL     1      -1.555   5.494  -0.056  0.00  0.00    +0.008 A 
ATOM     47  C   UNL     1      -2.027   4.173  -0.152  0.00  0.00    +0.012 A 
ATOM     48  C   UNL     1      -1.158   3.089  -0.051  0.00  0.00    +0.046 A 
ENDROOT
BRANCH  20  19
ATOM     19  O   UNL     1       1.149   2.320   0.229  0.00  0.00    -0.487 OA
BRANCH  19  18
ATOM     18  C   UNL     1       0.663   0.987   0.419  0.00  0.00    +0.264 C 
BRANCH  18  17
ATOM      1  C   UNL     1       2.854   0.143  -1.410  0.00  0.00    +0.045 C 
ATOM      2  C   UNL     1       2.933  -0.188   0.064  0.00  0.00    -0.036 A 
ATOM      3  C   UNL     1       4.089  -0.796   0.637  0.00  0.00    -0.014 A 
ATOM     14  C   UNL     1       3.980  -1.254   1.971  0.00  0.00    +0.009 A 
ATOM     15  C   UNL     1       2.829  -1.068   2.734  0.00  0.00    +0.001 A 
ATOM     16  C   UNL     1       1.771  -0.348   2.209  0.00  0.00    +0.007 A 
ATOM     17  C   UNL     1       1.814   0.119   0.887  0.00  0.00    -0.007 A 
BRANCH   3   4
ATOM      4  C   UNL     1       5.403  -0.936  -0.066  0.00  0.00    -0.014 A 
ATOM      5  C   UNL     1       6.269  -2.020   0.184  0.00  0.00    +0.058 A 
ATOM      6  C   UNL     1       7.514  -2.126  -0.446  0.00  0.00    +0.163 A 
ATOM      7  O   UNL     1       8.297  -3.192  -0.082  0.00  0.00    -0.485 OA
ATOM      8  C   UNL     1       9.397  -3.376  -0.980  0.00  0.00    +0.270 C 
ATOM      9  C   UNL     1      10.043  -2.050  -1.352  0.00  0.00    +0.270 C 
ATOM     10  O   UNL     1       9.113  -1.206  -2.035  0.00  0.00    -0.485 OA
ATOM     11  C   UNL     1       7.916  -1.164  -1.370  0.00  0.00    +0.162 A 
ATOM     12  C   UNL     1       7.088  -0.087  -1.644  0.00  0.00    +0.050 A 
ATOM     13  C   UNL     1       5.874   0.045  -0.962  0.00  0.00    +0.012 A 
ENDBRANCH   3   4
ENDBRANCH  18  17
ENDBRANCH  19  18
ENDBRANCH  20  19
BRANCH  22  23
ATOM     23  O   UNL     1       0.230   7.015   0.200  0.00  0.00    -0.487 OA
BRANCH  23  24
ATOM     24  C   UNL     1       1.373   7.312   1.002  0.00  0.00    +0.264 C 
BRANCH  24  25
ATOM     25  C   UNL     1       1.599   8.808   0.927  0.00  0.00    -0.009 A 
ATOM     26  C   UNL     1       1.856   9.408  -0.318  0.00  0.00    +0.010 A 
ATOM     27  C   UNL     1       2.070  10.786  -0.413  0.00  0.00    +0.040 A 
ATOM     28  C   UNL     1       2.030  11.567   0.738  0.00  0.00    +0.141 A 
ATOM     29  F   UNL     1       2.228  12.887   0.619  0.00  0.00    -0.204 F 
ATOM     30  C   UNL     1       1.780  10.996   1.981  0.00  0.00    +0.087 A 
ATOM     33  C   UNL     1       1.570   9.612   2.077  0.00  0.00    +0.028 A 
BRANCH  30  31
ATOM     31  C   UNL     1       1.738  11.816   3.152  0.00  0.00    +0.102 C 
ATOM     32  N   UNL     1       1.697  12.451   4.123  0.00  0.00    -0.191 NA
ENDBRANCH  30  31
ENDBRANCH  24  25
ENDBRANCH  23  24
ENDBRANCH  22  23
BRANCH  34  35
ATOM     35  C   UNL     1      -2.537   6.641  -0.192  0.00  0.00    +0.120 C 
BRANCH  35  36
ATOM     36  N   UNL     1      -3.645   6.591   0.780  0.00  0.00    -0.309 NA
ATOM     37  H   UNL     1      -4.071   5.672   0.702  0.00  0.00    +0.122 HD
BRANCH  36  38
ATOM     38  C   UNL     1      -3.159   6.797   2.154  0.00  0.00    +0.113 C 
BRANCH  38  39
ATOM     39  C   UNL     1      -4.333   6.826   3.153  0.00  0.00    +0.139 C 
BRANCH  39  45
ATOM     45  O   UNL     1      -5.085   5.600   3.054  0.00  0.00    -0.390 OA
ATOM     46  H   UNL     1      -5.415   5.576   2.134  0.00  0.00    +0.210 HD
ENDBRANCH  39  45
BRANCH  39  40
ATOM     40  C   UNL     1      -3.810   6.949   4.580  0.00  0.00    +0.153 C 
BRANCH  40  41
ATOM     41  C   UNL     1      -4.911   7.036   5.607  0.00  0.00    +0.307 C 
ATOM     42  O   UNL     1      -4.835   7.733   6.609  0.00  0.00    -0.251 OA
BRANCH  41  43
ATOM     43  O   UNL     1      -5.953   6.206   5.385  0.00  0.00    -0.481 OA
ATOM     44  H   UNL     1      -5.833   5.687   4.552  0.00  0.00    +0.295 HD
ENDBRANCH  41  43
ENDBRANCH  40  41
ENDBRANCH  39  40
ENDBRANCH  38  39
ENDBRANCH  36  38
ENDBRANCH  35  36
ENDBRANCH  34  35
TORSDOF 16
