REMARK  Name = 
REMARK  16 active torsions:
REMARK  status: ('A' for Active; 'I' for Inactive)
REMARK    1  A    between atoms: C_3  and  N_4
REMARK    2  A    between atoms: C_5  and  C_6
REMARK    3  A    between atoms: C_9  and  C_10
REMARK    4  A    between atoms: C_10  and  N_11
REMARK    5  A    between atoms: N_11  and  C_12
REMARK    6  A    between atoms: C_12  and  C_13
REMARK    7  A    between atoms: C_13  and  O_14
REMARK    8  A    between atoms: C_21  and  C_22
REMARK    9  A    between atoms: C_26  and  N_27
REMARK   10  A    between atoms: C_28  and  C_29
REMARK   11  A    between atoms: C_32  and  C_33
REMARK   12  A    between atoms: C_33  and  N_34
REMARK   13  A    between atoms: N_34  and  C_35
REMARK   14  A    between atoms: C_35  and  C_36
REMARK   15  A    between atoms: C_36  and  O_37
REMARK   16  A    between atoms: C_41  and  C_42
REMARK                            x       y       z     vdW  Elec       q    Type
REMARK                         _______ _______ _______ _____ _____    ______ ____
ROOT
ATOM      1 CL   UNL     1       3.752  -0.399  -2.429  0.00  0.00    -0.081 Cl
ATOM      2  C   UNL     1       3.746  -0.327  -0.678  0.00  0.00    +0.070 A 
ATOM      3  C   UNL     1       3.604  -1.566   0.026  0.00  0.00    +0.003 A 
ATOM     28  C   UNL     1       4.212  -1.624   1.296  0.00  0.00    +0.010 A 
ATOM     29  C   UNL     1       4.840  -0.501   1.860  0.00  0.00    +0.002 A 
ATOM     30  C   UNL     1       4.801   0.740   1.213  0.00  0.00    +0.025 A 
ATOM     31  C   UNL     1       4.202   0.869  -0.048  0.00  0.00    +0.053 A 
ENDROOT
BRANCH   3   4
ATOM      4  C   UNL     1       2.838  -2.750  -0.533  0.00  0.00    -0.012 A 
ATOM      5  C   UNL     1       1.533  -2.631  -1.141  0.00  0.00    -0.021 A 
ATOM      6  C   UNL     1       0.762  -1.356  -0.922  0.00  0.00    +0.046 C 
ATOM      7  C   UNL     1       0.905  -3.714  -1.832  0.00  0.00    +0.037 A 
ATOM     25  C   UNL     1       1.479  -4.988  -1.687  0.00  0.00    +0.023 A 
ATOM     26  C   UNL     1       2.663  -5.157  -0.951  0.00  0.00    +0.002 A 
ATOM     27  C   UNL     1       3.354  -4.060  -0.419  0.00  0.00    +0.009 A 
BRANCH   7   8
ATOM      8  N   UNL     1      -0.275  -3.471  -2.616  0.00  0.00    -0.280 N 
ATOM      9  H   UNL     1      -0.553  -2.502  -2.737  0.00  0.00    +0.155 HD
ATOM     10  C   UNL     1      -1.086  -4.383  -3.287  0.00  0.00    +0.267 C 
ATOM     11  O   UNL     1      -0.875  -5.592  -3.363  0.00  0.00    -0.268 OA
BRANCH  10  12
ATOM     12  C   UNL     1      -2.354  -3.832  -3.948  0.00  0.00    +0.126 A 
ATOM     13  N   UNL     1      -2.688  -2.522  -3.781  0.00  0.00    -0.250 NA
ATOM     14  C   UNL     1      -3.928  -2.134  -4.245  0.00  0.00    +0.116 A 
ATOM     15  C   UNL     1      -4.862  -2.969  -4.865  0.00  0.00    -0.015 A 
ATOM     23  C   UNL     1      -4.450  -4.291  -5.066  0.00  0.00    +0.008 A 
ATOM     24  C   UNL     1      -3.195  -4.723  -4.617  0.00  0.00    +0.033 A 
BRANCH  15  16
ATOM     16  C   UNL     1      -6.311  -2.598  -5.130  0.00  0.00    +0.118 C 
BRANCH  16  17
ATOM     17  N   UNL     1      -6.623  -1.215  -5.535  0.00  0.00    -0.310 NA
ATOM     18  H   UNL     1      -7.636  -1.099  -5.440  0.00  0.00    +0.122 HD
BRANCH  17  19
ATOM     19  C   UNL     1      -6.279  -0.964  -6.948  0.00  0.00    +0.109 C 
BRANCH  19  20
ATOM     20  C   UNL     1      -6.772   0.417  -7.419  0.00  0.00    +0.171 C 
BRANCH  20  21
ATOM     21  O   UNL     1      -6.306   1.454  -6.562  0.00  0.00    -0.394 OA
ATOM     22  H   UNL     1      -6.509   1.158  -5.655  0.00  0.00    +0.209 HD
ENDBRANCH  20  21
ENDBRANCH  19  20
ENDBRANCH  17  19
ENDBRANCH  16  17
ENDBRANCH  15  16
ENDBRANCH  10  12
ENDBRANCH   7   8
ENDBRANCH   3   4
BRANCH  31  32
ATOM     32  N   UNL     1       4.112   2.194  -0.601  0.00  0.00    -0.279 N 
ATOM     33  H   UNL     1       4.656   2.938  -0.174  0.00  0.00    +0.155 HD
ATOM     34  C   UNL     1       3.114   2.629  -1.475  0.00  0.00    +0.267 C 
ATOM     35  O   UNL     1       2.119   1.971  -1.772  0.00  0.00    -0.268 OA
BRANCH  34  36
ATOM     36  C   UNL     1       3.250   4.022  -2.067  0.00  0.00    +0.126 A 
ATOM     37  N   UNL     1       4.173   4.877  -1.549  0.00  0.00    -0.250 NA
ATOM     38  C   UNL     1       4.329   6.067  -2.214  0.00  0.00    +0.116 A 
ATOM     39  C   UNL     1       3.646   6.458  -3.376  0.00  0.00    -0.015 A 
ATOM     47  C   UNL     1       2.667   5.575  -3.832  0.00  0.00    +0.008 A 
ATOM     48  C   UNL     1       2.462   4.356  -3.171  0.00  0.00    +0.033 A 
BRANCH  39  40
ATOM     40  C   UNL     1       4.109   7.643  -4.206  0.00  0.00    +0.118 C 
BRANCH  40  41
ATOM     41  N   UNL     1       3.052   8.559  -4.681  0.00  0.00    -0.310 NA
ATOM     42  H   UNL     1       2.694   9.073  -3.875  0.00  0.00    +0.122 HD
BRANCH  41  43
ATOM     43  C   UNL     1       3.643   9.546  -5.622  0.00  0.00    +0.109 C 
BRANCH  43  44
ATOM     44  C   UNL     1       2.635  10.585  -6.136  0.00  0.00    +0.171 C 
BRANCH  44  45
ATOM     45  O   UNL     1       2.085  11.328  -5.053  0.00  0.00    -0.394 OA
ATOM     46  H   UNL     1       1.442  10.749  -4.613  0.00  0.00    +0.209 HD
ENDBRANCH  44  45
ENDBRANCH  43  44
ENDBRANCH  41  43
ENDBRANCH  40  41
ENDBRANCH  39  40
ENDBRANCH  34  36
ENDBRANCH  31  32
TORSDOF 15
