REMARK  Name = 51263
REMARK  12 active torsions:
REMARK  status: ('A' for Active; 'I' for Inactive)
REMARK    1  A    between atoms: O_1  and  C_15
REMARK    2  A    between atoms: O_1  and  C_23
REMARK    3  A    between atoms: N_4  and  C_16
REMARK    4  A    between atoms: N_5  and  C_10
REMARK    5  A    between atoms: N_5  and  C_17
REMARK    6  A    between atoms: N_6  and  C_19
REMARK    7  A    between atoms: N_8  and  C_29
REMARK    8  A    between atoms: C_10  and  C_15
REMARK    9  A    between atoms: C_16  and  C_19
REMARK   10  A    between atoms: C_18  and  C_20
REMARK   11  A    between atoms: C_20  and  C_24
REMARK   12  A    between atoms: C_29  and  C_30
REMARK                            x       y       z     vdW  Elec       q    Type
REMARK                         _______ _______ _______ _____ _____    ______ ____
ROOT
ATOM      4  C   UNL     1       1.804  -0.837  -0.011  0.00  0.00    +0.068 C 
ATOM      5  C   UNL     1       1.160  -1.318  -1.326  0.00  0.00    +0.044 C 
ATOM      6  C   UNL     1      -0.351  -1.541  -1.206  0.00  0.00    +0.086 C 
ATOM      7  N   UNL     1      -1.028  -0.333  -0.720  0.00  0.00    -0.300 NA
ATOM     18  C   UNL     1      -0.513   0.076   0.593  0.00  0.00    +0.086 C 
ATOM     19  C   UNL     1       0.992   0.354   0.535  0.00  0.00    +0.044 C 
ENDROOT
BRANCH   4  20
ATOM     20  N   UNL     1       3.166  -0.401  -0.280  0.00  0.00    -0.263 N 
ATOM     21  C   UNL     1       4.157  -1.265  -0.818  0.00  0.00    +0.220 C 
ATOM     24  O   UNL     1       3.988  -2.452  -1.112  0.00  0.00    -0.275 OA
BRANCH  20  25
ATOM     25  C   UNL     1       3.527   0.979   0.013  0.00  0.00    +0.037 A 
ATOM     26  C   UNL     1       4.025   1.317   1.272  0.00  0.00    +0.023 A 
ATOM     27  C   UNL     1       4.371   2.639   1.553  0.00  0.00    +0.002 A 
ATOM     28  C   UNL     1       4.220   3.623   0.576  0.00  0.00    +0.000 A 
ATOM     29  C   UNL     1       3.722   3.285  -0.683  0.00  0.00    +0.002 A 
ATOM     30  C   UNL     1       3.376   1.963  -0.964  0.00  0.00    +0.023 A 
ENDBRANCH  20  25
BRANCH  21  22
ATOM     22  C   UNL     1       5.540  -0.645  -0.991  0.00  0.00    +0.093 C 
ATOM     23  C   UNL     1       6.552  -1.615  -1.583  0.00  0.00    +0.013 C 
ENDBRANCH  21  22
ENDBRANCH   4  20
BRANCH   4   3
ATOM      3  C   UNL     1       1.869  -1.976   1.018  0.00  0.00    +0.185 C 
BRANCH   3   1
ATOM      1  O   UNL     1       2.477  -1.478   2.193  0.00  0.00    -0.381 OA
ATOM      2  C   UNL     1       2.576  -2.477   3.203  0.00  0.00    +0.194 C 
ENDBRANCH   3   1
ENDBRANCH   4   3
BRANCH   7   8
ATOM      8  C   UNL     1      -2.474  -0.543  -0.660  0.00  0.00    +0.108 C 
BRANCH   8   9
ATOM      9  C   UNL     1      -3.204   0.791  -0.683  0.00  0.00    +0.166 C 
BRANCH   9  10
ATOM     10  N   UNL     1      -4.630   0.605  -0.654  0.00  0.00    -0.192 N 
ATOM     11  C   UNL     1      -5.402   0.531   0.496  0.00  0.00    +0.364 A 
ATOM     12  N   UNL     1      -6.680   0.352  -0.012  0.00  0.00    -0.194 N 
ATOM     15  N   UNL     1      -6.633   0.325  -1.378  0.00  0.00    -0.043 NA
ATOM     16  O   UNL     1      -5.047   0.606   1.660  0.00  0.00    -0.243 OA
ATOM     17  N   UNL     1      -5.430   0.473  -1.755  0.00  0.00    -0.043 NA
BRANCH  12  13
ATOM     13  C   UNL     1      -7.918   0.207   0.707  0.00  0.00    +0.147 C 
ATOM     14  C   UNL     1      -8.212  -1.246   1.018  0.00  0.00    +0.029 C 
ENDBRANCH  12  13
ENDBRANCH   9  10
ENDBRANCH   8   9
ENDBRANCH   7   8
TORSDOF 9
