REMARK  Name = 644073
REMARK  12 active torsions:
REMARK  status: ('A' for Active; 'I' for Inactive)
REMARK    1  A    between atoms: O_2  and  C_8
REMARK    2  A    between atoms: O_2  and  C_30
REMARK    3  A    between atoms: O_3  and  C_18
REMARK    4  A    between atoms: O_4  and  C_27
REMARK    5  A    between atoms: N_5  and  C_22
REMARK    6  A    between atoms: C_10  and  C_18
REMARK    7  A    between atoms: C_18  and  C_23
REMARK    8  A    between atoms: C_18  and  C_25
REMARK    9  A    between atoms: C_22  and  C_24
REMARK   10  A    between atoms: C_23  and  C_32
REMARK   11  A    between atoms: C_23  and  C_33
REMARK   12  A    between atoms: C_23  and  C_34
REMARK                            x       y       z     vdW  Elec       q    Type
REMARK                         _______ _______ _______ _____ _____    ______ ____
ROOT
ATOM      1  O   UNL     1       0.221   2.825   1.095  0.00  0.00    -0.481 OA
ATOM      2  C   UNL     1       1.455   2.707   0.506  0.00  0.00    +0.166 A 
ATOM      3  C   UNL     1       2.310   3.740   0.189  0.00  0.00    +0.159 A 
ATOM      4  C   UNL     1       3.426   3.442  -0.608  0.00  0.00    +0.049 A 
ATOM      5  C   UNL     1       3.630   2.144  -1.123  0.00  0.00    +0.008 A 
ATOM      6  C   UNL     1       2.743   1.118  -0.799  0.00  0.00    -0.038 A 
ATOM      7  C   UNL     1       2.694  -0.215  -1.516  0.00  0.00    +0.055 C 
ATOM      8  C   UNL     1       1.448  -1.131  -1.162  0.00  0.00    +0.068 C 
ATOM      9  C   UNL     1       0.208  -0.283  -0.713  0.00  0.00    +0.000 C 
ATOM     10  C   UNL     1      -0.287   0.687  -1.843  0.00  0.00    +0.012 C 
ATOM     11  C   UNL     1      -1.294   1.704  -1.285  0.00  0.00    +0.040 C 
ATOM     12  C   UNL     1      -1.634   1.369   0.176  0.00  0.00    +0.112 C 
ATOM     13  C   UNL     1      -2.134  -0.112   0.262  0.00  0.00    +0.057 C 
ATOM     24  C   UNL     1      -1.067  -1.083  -0.326  0.00  0.00    +0.018 C 
ATOM     25  C   UNL     1       0.679   0.488   0.543  0.00  0.00    +0.047 C 
ATOM     26  C   UNL     1       1.193  -0.449   1.657  0.00  0.00    +0.031 C 
ATOM     27  C   UNL     1       2.184  -1.507   1.155  0.00  0.00    +0.086 C 
ATOM     28  N   UNL     1       1.742  -2.121  -0.100  0.00  0.00    -0.298 NA
ATOM     35  C   UNL     1       1.735   1.423   0.101  0.00  0.00    +0.012 A 
ATOM     36  C   UNL     1      -0.366   1.484   1.068  0.00  0.00    +0.217 C 
ENDROOT
BRANCH  13  14
ATOM     14  C   UNL     1      -3.499  -0.342  -0.394  0.00  0.00    +0.074 C 
ATOM     15  C   UNL     1      -3.364  -0.093  -1.908  0.00  0.00    +0.042 C 
BRANCH  14  16
ATOM     16  C   UNL     1      -4.138  -1.747  -0.050  0.00  0.00    -0.009 C 
ATOM     17  C   UNL     1      -5.684  -1.681  -0.075  0.00  0.00    +0.013 C 
ATOM     18  C   UNL     1      -3.720  -2.812  -1.093  0.00  0.00    +0.013 C 
ATOM     19  C   UNL     1      -3.711  -2.257   1.341  0.00  0.00    +0.013 C 
ENDBRANCH  14  16
BRANCH  14  20
ATOM     20  O   UNL     1      -4.384   0.676   0.110  0.00  0.00    -0.388 OA
ATOM     21  H   UNL     1      -4.184   1.520  -0.327  0.00  0.00    +0.210 HD
ENDBRANCH  14  20
ENDBRANCH  13  14
BRANCH  12  22
ATOM     22  O   UNL     1      -2.630   2.256   0.664  0.00  0.00    -0.373 OA
ATOM     23  C   UNL     1      -2.966   1.972   2.015  0.00  0.00    +0.194 C 
ENDBRANCH  12  22
BRANCH   3  33
ATOM     33  O   UNL     1       2.065   5.013   0.587  0.00  0.00    -0.503 OA
ATOM     34  H   UNL     1       1.245   5.016   1.112  0.00  0.00    +0.292 HD
ENDBRANCH   3  33
BRANCH  28  29
ATOM     29  C   UNL     1       2.652  -3.178  -0.530  0.00  0.00    +0.088 C 
BRANCH  29  30
ATOM     30  C   UNL     1       2.770  -4.264   0.526  0.00  0.00    +0.003 C 
ATOM     31  C   UNL     1       4.045  -4.370   1.277  0.00  0.00    +0.005 C 
ATOM     32  C   UNL     1       3.679  -5.404   0.254  0.00  0.00    +0.005 C 
ENDBRANCH  29  30
ENDBRANCH  28  29
TORSDOF 7
