REMARK  Name = 5284371
REMARK  4 active torsions:
REMARK  status: ('A' for Active; 'I' for Inactive)
REMARK    1  A    between atoms: O_2  and  C_14
REMARK    2  A    between atoms: O_3  and  C_20
REMARK    3  A    between atoms: O_3  and  C_22
REMARK    4  A    between atoms: N_4  and  C_18
REMARK                            x       y       z     vdW  Elec       q    Type
REMARK                         _______ _______ _______ _____ _____    ______ ____
ROOT
ATOM      1  O   UNL     1      -1.593  -1.037   1.189  0.00  0.00    -0.481 OA
ATOM      2  C   UNL     1      -1.454   0.135   0.495  0.00  0.00    +0.167 A 
ATOM      3  C   UNL     1      -2.466   0.995   0.131  0.00  0.00    +0.162 A 
ATOM      4  C   UNL     1      -2.132   2.080  -0.690  0.00  0.00    +0.050 A 
ATOM      5  C   UNL     1      -0.813   2.263  -1.152  0.00  0.00    +0.008 A 
ATOM      6  C   UNL     1       0.197   1.382  -0.762  0.00  0.00    -0.038 A 
ATOM      7  C   UNL     1       1.590   1.405  -1.332  0.00  0.00    +0.055 C 
ATOM      8  C   UNL     1       2.550   0.309  -0.753  0.00  0.00    +0.068 C 
ATOM      9  C   UNL     1       1.807  -1.022  -0.403  0.00  0.00    +0.043 C 
ATOM     10  C   UNL     1       1.187  -1.725  -1.583  0.00  0.00    -0.023 C 
ATOM     11  C   UNL     1       0.137  -2.546  -1.431  0.00  0.00    +0.004 C 
ATOM     12  C   UNL     1      -0.460  -2.853  -0.084  0.00  0.00    +0.178 C 
ATOM     15  C   UNL     1       0.758  -0.677   0.665  0.00  0.00    +0.048 C 
ATOM     16  C   UNL     1       1.469  -0.145   1.926  0.00  0.00    +0.031 C 
ATOM     17  C   UNL     1       2.445   1.002   1.618  0.00  0.00    +0.085 C 
ATOM     18  N   UNL     1       3.299   0.713   0.461  0.00  0.00    -0.301 NA
ATOM     19  C   UNL     1       4.255   1.789   0.222  0.00  0.00    +0.105 C 
ATOM     22  C   UNL     1      -0.153   0.367   0.111  0.00  0.00    +0.012 A 
ATOM     23  C   UNL     1      -0.317  -1.740   0.988  0.00  0.00    +0.217 C 
ENDROOT
BRANCH  12  13
ATOM     13  O   UNL     1      -1.830  -3.222  -0.221  0.00  0.00    -0.384 OA
ATOM     14  H   UNL     1      -2.165  -3.435   0.667  0.00  0.00    +0.210 HD
ENDBRANCH  12  13
BRANCH   3  20
ATOM     20  O   UNL     1      -3.749   0.788   0.518  0.00  0.00    -0.491 OA
ATOM     21  C   UNL     1      -4.725   1.739   0.087  0.00  0.00    +0.277 C 
ENDBRANCH   3  20
TORSDOF 2
