REMARK  Name = 5311080
REMARK  14 active torsions:
REMARK  status: ('A' for Active; 'I' for Inactive)
REMARK    1  A    between atoms: O_5  and  C_40
REMARK    2  A    between atoms: N_7  and  C_19
REMARK    3  A    between atoms: N_8  and  C_18
REMARK    4  A    between atoms: N_9  and  C_26
REMARK    5  A    between atoms: C_12  and  C_16
REMARK    6  A    between atoms: C_17  and  C_18
REMARK    7  A    between atoms: C_18  and  C_21
REMARK    8  A    between atoms: C_19  and  C_20
REMARK    9  A    between atoms: C_19  and  C_22
REMARK   10  A    between atoms: C_20  and  C_23
REMARK   11  A    between atoms: C_21  and  C_24
REMARK   12  A    between atoms: C_26  and  C_29
REMARK   13  A    between atoms: C_26  and  C_34
REMARK   14  A    between atoms: C_29  and  C_35
REMARK                            x       y       z     vdW  Elec       q    Type
REMARK                         _______ _______ _______ _____ _____    ______ ____
ROOT
ATOM     25  C   UNL     1       1.416  -1.054  -1.017  0.00  0.00    +0.163 C 
ENDROOT
BRANCH  25  23
ATOM      1  O   UNL     1      -0.421   0.908   0.080  0.00  0.00    -0.274 OA
ATOM      2  C   UNL     1      -0.193   0.841  -1.125  0.00  0.00    +0.234 C 
ATOM     23  N   UNL     1       0.662  -0.056  -1.741  0.00  0.00    -0.302 N 
ATOM     24  H   UNL     1       0.809   0.009  -2.744  0.00  0.00    +0.150 HD
BRANCH   2   3
ATOM      3  C   UNL     1      -0.828   1.784  -2.103  0.00  0.00    +0.162 C 
ATOM      4  C   UNL     1      -0.054   3.092  -2.212  0.00  0.00    +0.033 C 
ATOM      5  C   UNL     1      -0.642   3.946  -1.091  0.00  0.00    +0.021 C 
ATOM      6  C   UNL     1      -2.109   3.544  -1.077  0.00  0.00    +0.108 C 
ATOM      7  N   UNL     1      -2.123   2.164  -1.554  0.00  0.00    -0.289 N 
ATOM      8  C   UNL     1      -3.238   1.344  -1.641  0.00  0.00    +0.233 C 
ATOM     22  O   UNL     1      -3.212   0.182  -2.050  0.00  0.00    -0.274 OA
BRANCH   8   9
ATOM      9  C   UNL     1      -4.535   1.962  -1.183  0.00  0.00    +0.142 C 
BRANCH   9  19
ATOM     19  N   UNL     1      -5.389   1.989  -2.363  0.00  0.00    -0.320 NA
ATOM     20  H   UNL     1      -5.003   2.631  -3.053  0.00  0.00    +0.119 HD
ATOM     21  H   UNL     1      -6.307   2.357  -2.115  0.00  0.00    +0.119 HD
ENDBRANCH   9  19
BRANCH   9  10
ATOM     10  C   UNL     1      -5.171   1.140  -0.061  0.00  0.00    +0.063 C 
BRANCH  10  11
ATOM     11  C   UNL     1      -4.285   1.032   1.158  0.00  0.00    -0.045 A 
ATOM     12  C   UNL     1      -3.377  -0.021   1.270  0.00  0.00    +0.007 A 
ATOM     13  C   UNL     1      -2.560  -0.121   2.396  0.00  0.00    +0.045 A 
ATOM     14  C   UNL     1      -2.651   0.832   3.410  0.00  0.00    +0.117 A 
ATOM     15  C   UNL     1      -3.558   1.886   3.298  0.00  0.00    +0.045 A 
ATOM     18  C   UNL     1      -4.375   1.986   2.172  0.00  0.00    +0.007 A 
BRANCH  14  16
ATOM     16  O   UNL     1      -1.853   0.735   4.508  0.00  0.00    -0.507 OA
ATOM     17  H   UNL     1      -2.048   1.477   5.106  0.00  0.00    +0.292 HD
ENDBRANCH  14  16
ENDBRANCH  10  11
ENDBRANCH   9  10
ENDBRANCH   8   9
ENDBRANCH   2   3
ENDBRANCH  25  23
BRANCH  25  26
ATOM     26  C   UNL     1       2.896  -0.740  -1.208  0.00  0.00    +0.234 C 
ATOM     27  N   UNL     1       3.634  -0.994  -0.061  0.00  0.00    -0.302 N 
ATOM     28  H   UNL     1       3.174  -1.415   0.741  0.00  0.00    +0.150 HD
ATOM     42  O   UNL     1       3.352  -0.276  -2.252  0.00  0.00    -0.274 OA
BRANCH  27  29
ATOM     29  C   UNL     1       5.053  -0.738   0.040  0.00  0.00    +0.163 C 
BRANCH  29  30
ATOM     30  C   UNL     1       5.736  -2.080   0.260  0.00  0.00    +0.231 C 
ATOM     31  N   UNL     1       6.945  -2.177  -0.395  0.00  0.00    -0.328 N 
ATOM     32  H   UNL     1       7.338  -1.413  -0.934  0.00  0.00    +0.145 HD
ATOM     33  H   UNL     1       7.497  -3.027  -0.344  0.00  0.00    +0.145 HD
ATOM     34  O   UNL     1       5.245  -2.998   0.913  0.00  0.00    -0.274 OA
ENDBRANCH  29  30
BRANCH  29  35
ATOM     35  C   UNL     1       5.388   0.225   1.185  0.00  0.00    +0.067 C 
BRANCH  35  36
ATOM     36  C   UNL     1       4.713   1.567   1.035  0.00  0.00    -0.045 A 
ATOM     37  C   UNL     1       3.450   1.778   1.588  0.00  0.00    +0.004 A 
ATOM     38  C   UNL     1       2.826   3.018   1.449  0.00  0.00    +0.000 A 
ATOM     39  C   UNL     1       3.466   4.047   0.757  0.00  0.00    +0.000 A 
ATOM     40  C   UNL     1       4.729   3.836   0.204  0.00  0.00    +0.000 A 
ATOM     41  C   UNL     1       5.352   2.596   0.343  0.00  0.00    +0.004 A 
ENDBRANCH  35  36
ENDBRANCH  29  35
ENDBRANCH  27  29
ENDBRANCH  25  26
BRANCH  25  43
ATOM     43  C   UNL     1       1.102  -2.474  -1.504  0.00  0.00    +0.069 C 
BRANCH  43  44
ATOM     44  C   UNL     1      -0.350  -2.837  -1.367  0.00  0.00    -0.020 A 
ATOM     45  C   UNL     1      -1.321  -2.635  -2.320  0.00  0.00    +0.087 A 
ATOM     46  N   UNL     1      -2.508  -3.097  -1.817  0.00  0.00    -0.360 N 
ATOM     47  H   UNL     1      -3.393  -3.073  -2.305  0.00  0.00    +0.165 HD
ATOM     48  C   UNL     1      -2.322  -3.597  -0.547  0.00  0.00    +0.047 A 
ATOM     49  C   UNL     1      -3.240  -4.167   0.343  0.00  0.00    +0.026 A 
ATOM     50  C   UNL     1      -2.759  -4.593   1.584  0.00  0.00    +0.002 A 
ATOM     51  C   UNL     1      -1.413  -4.453   1.918  0.00  0.00    +0.001 A 
ATOM     52  C   UNL     1      -0.506  -3.882   1.018  0.00  0.00    +0.010 A 
ATOM     53  C   UNL     1      -0.969  -3.445  -0.239  0.00  0.00    +0.003 A 
ENDBRANCH  43  44
ENDBRANCH  25  43
TORSDOF 14
