REMARK  Name = 5311081
REMARK  14 active torsions:
REMARK  status: ('A' for Active; 'I' for Inactive)
REMARK    1  A    between atoms: O_5  and  C_36
REMARK    2  A    between atoms: N_7  and  C_18
REMARK    3  A    between atoms: N_8  and  C_17
REMARK    4  A    between atoms: N_9  and  C_24
REMARK    5  A    between atoms: C_11  and  C_15
REMARK    6  A    between atoms: C_16  and  C_17
REMARK    7  A    between atoms: C_17  and  C_19
REMARK    8  A    between atoms: C_18  and  C_20
REMARK    9  A    between atoms: C_18  and  C_21
REMARK   10  A    between atoms: C_19  and  C_22
REMARK   11  A    between atoms: C_20  and  C_23
REMARK   12  A    between atoms: C_24  and  C_25
REMARK   13  A    between atoms: C_24  and  C_30
REMARK   14  A    between atoms: C_25  and  C_31
REMARK                            x       y       z     vdW  Elec       q    Type
REMARK                         _______ _______ _______ _____ _____    ______ ____
ROOT
ATOM     25  C   UNL     1       1.375  -1.286  -0.879  0.00  0.00    +0.163 C 
ENDROOT
BRANCH  25  23
ATOM      1  O   UNL     1      -0.649   0.571   0.061  0.00  0.00    -0.274 OA
ATOM      2  C   UNL     1      -0.421   0.418  -1.136  0.00  0.00    +0.234 C 
ATOM     23  N   UNL     1       0.520  -0.439  -1.680  0.00  0.00    -0.302 N 
ATOM     24  H   UNL     1       0.656  -0.451  -2.687  0.00  0.00    +0.150 HD
BRANCH   2   3
ATOM      3  C   UNL     1      -1.153   1.198  -2.187  0.00  0.00    +0.162 C 
ATOM      4  C   UNL     1      -0.518   2.563  -2.423  0.00  0.00    +0.033 C 
ATOM      5  C   UNL     1      -1.185   3.451  -1.376  0.00  0.00    +0.021 C 
ATOM      6  C   UNL     1      -2.603   2.905  -1.307  0.00  0.00    +0.108 C 
ATOM      7  N   UNL     1      -2.478   1.492  -1.658  0.00  0.00    -0.289 N 
ATOM      8  C   UNL     1      -3.503   0.559  -1.656  0.00  0.00    +0.233 C 
ATOM     22  O   UNL     1      -3.359  -0.626  -1.959  0.00  0.00    -0.274 OA
BRANCH   8   9
ATOM      9  C   UNL     1      -4.855   1.080  -1.238  0.00  0.00    +0.142 C 
BRANCH   9  19
ATOM     19  N   UNL     1      -5.712   0.913  -2.405  0.00  0.00    -0.320 NA
ATOM     20  H   UNL     1      -6.661   1.207  -2.179  0.00  0.00    +0.119 HD
ATOM     21  H   UNL     1      -5.396   1.526  -3.156  0.00  0.00    +0.119 HD
ENDBRANCH   9  19
BRANCH   9  10
ATOM     10  C   UNL     1      -5.399   0.304  -0.039  0.00  0.00    +0.063 C 
BRANCH  10  11
ATOM     11  C   UNL     1      -4.502   0.398   1.173  0.00  0.00    -0.045 A 
ATOM     12  C   UNL     1      -3.490  -0.543   1.368  0.00  0.00    +0.007 A 
ATOM     13  C   UNL     1      -2.664  -0.456   2.487  0.00  0.00    +0.045 A 
ATOM     14  C   UNL     1      -2.848   0.572   3.413  0.00  0.00    +0.117 A 
ATOM     15  C   UNL     1      -3.859   1.513   3.218  0.00  0.00    +0.045 A 
ATOM     18  C   UNL     1      -4.686   1.426   2.098  0.00  0.00    +0.007 A 
BRANCH  14  16
ATOM     16  O   UNL     1      -2.040   0.656   4.505  0.00  0.00    -0.507 OA
ATOM     17  H   UNL     1      -2.308   1.426   5.036  0.00  0.00    +0.292 HD
ENDBRANCH  14  16
ENDBRANCH  10  11
ENDBRANCH   9  10
ENDBRANCH   8   9
ENDBRANCH   2   3
ENDBRANCH  25  23
BRANCH  25  26
ATOM     26  C   UNL     1       2.811  -0.837  -1.124  0.00  0.00    +0.234 C 
ATOM     27  N   UNL     1       3.580  -0.903   0.030  0.00  0.00    -0.302 N 
ATOM     28  H   UNL     1       3.172  -1.295   0.875  0.00  0.00    +0.150 HD
ATOM     42  O   UNL     1       3.208  -0.427  -2.212  0.00  0.00    -0.274 OA
BRANCH  27  29
ATOM     29  C   UNL     1       4.963  -0.489   0.087  0.00  0.00    +0.163 C 
BRANCH  29  30
ATOM     30  C   UNL     1       5.787  -1.725   0.419  0.00  0.00    +0.231 C 
ATOM     31  N   UNL     1       6.997  -1.754  -0.242  0.00  0.00    -0.328 N 
ATOM     32  H   UNL     1       7.303  -1.005  -0.855  0.00  0.00    +0.145 HD
ATOM     33  H   UNL     1       7.637  -2.531  -0.122  0.00  0.00    +0.145 HD
ATOM     34  O   UNL     1       5.401  -2.625   1.161  0.00  0.00    -0.274 OA
ENDBRANCH  29  30
BRANCH  29  35
ATOM     35  C   UNL     1       5.198   0.606   1.133  0.00  0.00    +0.067 C 
BRANCH  35  36
ATOM     36  C   UNL     1       4.383   1.849   0.870  0.00  0.00    -0.045 A 
ATOM     37  C   UNL     1       3.107   1.975   1.420  0.00  0.00    +0.004 A 
ATOM     38  C   UNL     1       2.353   3.123   1.177  0.00  0.00    +0.000 A 
ATOM     39  C   UNL     1       2.876   4.145   0.384  0.00  0.00    +0.000 A 
ATOM     40  C   UNL     1       4.151   4.019  -0.165  0.00  0.00    +0.000 A 
ATOM     41  C   UNL     1       4.905   2.871   0.077  0.00  0.00    +0.004 A 
ENDBRANCH  35  36
ENDBRANCH  29  35
ENDBRANCH  27  29
ENDBRANCH  25  26
BRANCH  25  43
ATOM     43  C   UNL     1       1.212  -2.769  -1.229  0.00  0.00    +0.067 C 
BRANCH  43  44
ATOM     44  C   UNL     1      -0.016  -3.385  -0.605  0.00  0.00    -0.045 A 
ATOM     45  C   UNL     1      -1.230  -3.369  -1.292  0.00  0.00    +0.004 A 
ATOM     46  C   UNL     1      -2.365  -3.938  -0.715  0.00  0.00    +0.000 A 
ATOM     47  C   UNL     1      -2.286  -4.524   0.549  0.00  0.00    +0.000 A 
ATOM     48  C   UNL     1      -1.072  -4.540   1.236  0.00  0.00    +0.000 A 
ATOM     49  C   UNL     1       0.063  -3.971   0.659  0.00  0.00    +0.004 A 
ENDBRANCH  43  44
ENDBRANCH  25  43
TORSDOF 14
