REMARK  Name = 3345
REMARK  7 active torsions:
REMARK  status: ('A' for Active; 'I' for Inactive)
REMARK    1  A    between atoms: N_2  and  C_9
REMARK    2  A    between atoms: N_3  and  C_4
REMARK    3  A    between atoms: N_3  and  C_11
REMARK    4  A    between atoms: C_9  and  C_10
REMARK    5  A    between atoms: C_10  and  C_13
REMARK    6  A    between atoms: C_12  and  C_14
REMARK    7  A    between atoms: C_14  and  C_17
REMARK                            x       y       z     vdW  Elec       q    Type
REMARK                         _______ _______ _______ _____ _____    ______ ____
ROOT
ATOM     12  C   UNL     1      -1.477  -1.020  -0.202  0.00  0.00    +0.084 C 
ATOM     13  C   UNL     1      -0.660  -0.516   0.988  0.00  0.00    +0.038 C 
ATOM     14  C   UNL     1       0.837  -0.742   0.769  0.00  0.00    +0.086 C 
ATOM     15  N   UNL     1       1.291  -0.111  -0.478  0.00  0.00    -0.302 NA
ATOM     24  C   UNL     1       0.566  -0.648  -1.639  0.00  0.00    +0.086 C 
ATOM     25  C   UNL     1      -0.940  -0.420  -1.502  0.00  0.00    +0.038 C 
ENDROOT
BRANCH  12   5
ATOM      1  O   UNL     1      -3.700  -2.940  -0.031  0.00  0.00    -0.275 OA
ATOM      2  C   UNL     1      -3.887  -1.723   0.036  0.00  0.00    +0.220 C 
ATOM      5  N   UNL     1      -2.876  -0.718  -0.036  0.00  0.00    -0.268 N 
BRANCH   5   6
ATOM      6  C   UNL     1      -3.280   0.684   0.062  0.00  0.00    +0.037 A 
ATOM      7  C   UNL     1      -3.585   1.335  -1.095  0.00  0.00    +0.023 A 
ATOM      8  C   UNL     1      -3.968   2.673  -1.001  0.00  0.00    +0.002 A 
ATOM      9  C   UNL     1      -4.029   3.296   0.245  0.00  0.00    +0.000 A 
ATOM     10  C   UNL     1      -3.705   2.580   1.398  0.00  0.00    +0.002 A 
ATOM     11  C   UNL     1      -3.321   1.243   1.305  0.00  0.00    +0.023 A 
ENDBRANCH   5   6
BRANCH   2   3
ATOM      3  C   UNL     1      -5.313  -1.194   0.165  0.00  0.00    +0.093 C 
ATOM      4  C   UNL     1      -6.348  -2.306   0.253  0.00  0.00    +0.013 C 
ENDBRANCH   2   3
ENDBRANCH  12   5
BRANCH  15  16
ATOM     16  C   UNL     1       2.733  -0.292  -0.648  0.00  0.00    +0.089 C 
BRANCH  16  17
ATOM     17  C   UNL     1       3.506   0.379   0.488  0.00  0.00    +0.050 C 
BRANCH  17  18
ATOM     18  C   UNL     1       4.995   0.219   0.314  0.00  0.00    -0.046 A 
ATOM     19  C   UNL     1       5.704   1.176  -0.397  0.00  0.00    +0.003 A 
ATOM     20  C   UNL     1       7.081   1.029  -0.559  0.00  0.00    +0.000 A 
ATOM     21  C   UNL     1       7.734  -0.074  -0.007  0.00  0.00    +0.000 A 
ATOM     22  C   UNL     1       7.010  -1.029   0.706  0.00  0.00    +0.000 A 
ATOM     23  C   UNL     1       5.632  -0.881   0.867  0.00  0.00    +0.003 A 
ENDBRANCH  17  18
ENDBRANCH  16  17
ENDBRANCH  15  16
TORSDOF 6
