REMARK  Name = 11431898
REMARK  9 active torsions:
REMARK  status: ('A' for Active; 'I' for Inactive)
REMARK    1  A    between atoms: O_2  and  C_21
REMARK    2  A    between atoms: O_2  and  C_28
REMARK    3  A    between atoms: O_5  and  C_24
REMARK    4  A    between atoms: O_5  and  C_29
REMARK    5  A    between atoms: C_9  and  C_19
REMARK    6  A    between atoms: C_10  and  C_20
REMARK    7  A    between atoms: C_14  and  C_24
REMARK    8  A    between atoms: C_22  and  C_25
REMARK    9  A    between atoms: C_28  and  C_31
REMARK                            x       y       z     vdW  Elec       q    Type
REMARK                         _______ _______ _______ _____ _____    ______ ____
ROOT
ATOM      1  O   UNL     1       5.009   0.102   0.663  0.00  0.00    -0.456 OA
ATOM      2  C   UNL     1       4.487   1.347   0.770  0.00  0.00    +0.311 C 
ATOM      3  C   UNL     1       3.065   1.508   0.269  0.00  0.00    +0.105 C 
ATOM      4  C   UNL     1       2.495   2.895   0.591  0.00  0.00    +0.016 C 
ATOM      5  C   UNL     1       1.135   3.107  -0.078  0.00  0.00    +0.009 C 
ATOM      6  C   UNL     1       0.082   2.023   0.269  0.00  0.00    -0.009 C 
ATOM      7  C   UNL     1      -0.442   2.269   1.706  0.00  0.00    +0.013 C 
ATOM      8  C   UNL     1      -1.113   2.111  -0.750  0.00  0.00    +0.108 C 
ATOM     13  C   UNL     1      -2.164   1.020  -0.513  0.00  0.00    +0.067 C 
ATOM     14  C   UNL     1      -1.561  -0.378  -0.583  0.00  0.00    +0.243 C 
ATOM     15  C   UNL     1      -0.341  -0.474   0.324  0.00  0.00    +0.178 C 
ATOM     16  O   UNL     1      -0.225  -1.381   1.144  0.00  0.00    -0.293 OA
ATOM     26  C   UNL     1       0.728   0.603   0.083  0.00  0.00    +0.073 C 
ATOM     27  C   UNL     1       2.135   0.365   0.737  0.00  0.00    -0.005 C 
ATOM     28  C   UNL     1       2.098   0.250   2.278  0.00  0.00    +0.013 C 
ATOM     29  C   UNL     1       2.768  -0.918   0.146  0.00  0.00    +0.058 C 
ATOM     30  O   UNL     1       5.172   2.291   1.154  0.00  0.00    -0.250 OA
ATOM     31  C   UNL     1       4.225  -1.120   0.584  0.00  0.00    +0.210 C 
ENDROOT
BRANCH  31  32
ATOM     32  C   UNL     1       4.917  -2.096  -0.291  0.00  0.00    +0.030 A 
ATOM     33  C   UNL     1       4.962  -3.455  -0.122  0.00  0.00    +0.202 A 
ATOM     34  O   UNL     1       5.686  -4.031  -1.117  0.00  0.00    -0.471 OA
ATOM     35  C   UNL     1       6.104  -3.022  -1.926  0.00  0.00    +0.195 A 
ATOM     36  C   UNL     1       5.655  -1.809  -1.458  0.00  0.00    +0.048 A 
ENDBRANCH  31  32
BRANCH   8   9
ATOM      9  C   UNL     1      -1.788   3.455  -0.753  0.00  0.00    +0.311 C 
ATOM     10  O   UNL     1      -1.472   4.382  -0.020  0.00  0.00    -0.251 OA
BRANCH   9  11
ATOM     11  O   UNL     1      -2.783   3.463  -1.685  0.00  0.00    -0.468 OA
ATOM     12  C   UNL     1      -3.513   4.690  -1.794  0.00  0.00    +0.280 C 
ENDBRANCH   9  11
ENDBRANCH   8   9
BRANCH  14  17
ATOM     17  O   UNL     1      -2.528  -1.344  -0.217  0.00  0.00    -0.450 OA
BRANCH  17  18
ATOM     18  C   UNL     1      -3.675  -1.361  -0.956  0.00  0.00    +0.340 C 
ATOM     25  O   UNL     1      -3.771  -1.047  -2.132  0.00  0.00    -0.245 OA
BRANCH  18  19
ATOM     19  C   UNL     1      -4.828  -1.819  -0.140  0.00  0.00    +0.059 A 
ATOM     20  C   UNL     1      -4.828  -1.563   1.216  0.00  0.00    +0.015 A 
ATOM     21  C   UNL     1      -5.910  -1.993   1.983  0.00  0.00    +0.001 A 
ATOM     22  C   UNL     1      -6.970  -2.669   1.377  0.00  0.00    +0.000 A 
ATOM     23  C   UNL     1      -6.947  -2.915   0.005  0.00  0.00    +0.001 A 
ATOM     24  C   UNL     1      -5.864  -2.485  -0.762  0.00  0.00    +0.015 A 
ENDBRANCH  18  19
ENDBRANCH  17  18
ENDBRANCH  14  17
TORSDOF 6
