REMARK  Name = 5284570
REMARK  2 active torsions:
REMARK  status: ('A' for Active; 'I' for Inactive)
REMARK    1  A    between atoms: O_3  and  C_20
REMARK    2  A    between atoms: N_4  and  C_18
REMARK                            x       y       z     vdW  Elec       q    Type
REMARK                         _______ _______ _______ _____ _____    ______ ____
ROOT
ATOM      1  O   UNL     1      -1.978  -0.451   1.252  0.00  0.00    -0.476 OA
ATOM      2  C   UNL     1      -1.595   0.632   0.496  0.00  0.00    +0.167 A 
ATOM      3  C   UNL     1      -2.377   1.699   0.118  0.00  0.00    +0.159 A 
ATOM      4  C   UNL     1      -1.809   2.640  -0.753  0.00  0.00    +0.049 A 
ATOM      5  C   UNL     1      -0.494   2.486  -1.243  0.00  0.00    +0.008 A 
ATOM      6  C   UNL     1       0.286   1.404  -0.836  0.00  0.00    -0.038 A 
ATOM      7  C   UNL     1       1.645   1.077  -1.396  0.00  0.00    +0.054 C 
ATOM      8  C   UNL     1       2.349  -0.161  -0.737  0.00  0.00    +0.065 C 
ATOM      9  C   UNL     1       1.341  -1.284  -0.340  0.00  0.00    +0.021 C 
ATOM     10  C   UNL     1       0.632  -1.947  -1.528  0.00  0.00    +0.014 C 
ATOM     11  C   UNL     1      -0.370  -2.982  -1.028  0.00  0.00    +0.078 C 
ATOM     12  C   UNL     1      -1.422  -2.326  -0.162  0.00  0.00    +0.174 C 
ATOM     13  O   UNL     1      -2.619  -2.557  -0.337  0.00  0.00    -0.293 OA
ATOM     14  C   UNL     1       0.359  -0.670   0.664  0.00  0.00    +0.049 C 
ATOM     15  C   UNL     1       1.145  -0.264   1.929  0.00  0.00    +0.031 C 
ATOM     16  C   UNL     1       2.348   0.641   1.608  0.00  0.00    +0.085 C 
ATOM     17  N   UNL     1       3.142   0.144   0.479  0.00  0.00    -0.302 NA
ATOM     18  C   UNL     1       4.296   0.998   0.221  0.00  0.00    +0.105 C 
ATOM     21  C   UNL     1      -0.287   0.530   0.068  0.00  0.00    +0.012 A 
ATOM     22  C   UNL     1      -0.933  -1.438   0.985  0.00  0.00    +0.250 C 
ENDROOT
BRANCH   3  19
ATOM     19  O   UNL     1      -3.659   1.827   0.539  0.00  0.00    -0.503 OA
ATOM     20  H   UNL     1      -3.866   1.076   1.122  0.00  0.00    +0.292 HD
ENDBRANCH   3  19
TORSDOF 1
