REMARK  Name = 5284569
REMARK  3 active torsions:
REMARK  status: ('A' for Active; 'I' for Inactive)
REMARK    1  A    between atoms: O_3  and  C_20
REMARK    2  A    between atoms: O_3  and  C_22
REMARK    3  A    between atoms: N_4  and  C_18
REMARK                            x       y       z     vdW  Elec       q    Type
REMARK                         _______ _______ _______ _____ _____    ______ ____
ROOT
ATOM      1  O   UNL     1      -1.560  -1.040   1.244  0.00  0.00    -0.476 OA
ATOM      2  C   UNL     1      -1.480   0.104   0.484  0.00  0.00    +0.167 A 
ATOM      3  C   UNL     1      -2.519   0.919   0.098  0.00  0.00    +0.162 A 
ATOM      4  C   UNL     1      -2.222   1.976  -0.775  0.00  0.00    +0.050 A 
ATOM      5  C   UNL     1      -0.911   2.180  -1.259  0.00  0.00    +0.008 A 
ATOM      6  C   UNL     1       0.129   1.349  -0.844  0.00  0.00    -0.038 A 
ATOM      7  C   UNL     1       1.529   1.400  -1.397  0.00  0.00    +0.054 C 
ATOM      8  C   UNL     1       2.537   0.399  -0.730  0.00  0.00    +0.065 C 
ATOM      9  C   UNL     1       1.868  -0.953  -0.332  0.00  0.00    +0.021 C 
ATOM     10  C   UNL     1       1.369  -1.787  -1.519  0.00  0.00    +0.014 C 
ATOM     11  C   UNL     1       0.681  -3.051  -1.018  0.00  0.00    +0.078 C 
ATOM     12  C   UNL     1      -0.513  -2.700  -0.159  0.00  0.00    +0.174 C 
ATOM     13  O   UNL     1      -1.602  -3.246  -0.337  0.00  0.00    -0.293 OA
ATOM     14  C   UNL     1       0.751  -0.623   0.666  0.00  0.00    +0.049 C 
ATOM     15  C   UNL     1       1.392  -0.015   1.932  0.00  0.00    +0.031 C 
ATOM     16  C   UNL     1       2.308   1.180   1.611  0.00  0.00    +0.085 C 
ATOM     17  N   UNL     1       3.212   0.912   0.487  0.00  0.00    -0.302 NA
ATOM     18  C   UNL     1       4.095   2.044   0.230  0.00  0.00    +0.105 C 
ATOM     21  C   UNL     1      -0.191   0.357   0.062  0.00  0.00    +0.012 A 
ATOM     22  C   UNL     1      -0.287  -1.709   0.986  0.00  0.00    +0.250 C 
ENDROOT
BRANCH   3  19
ATOM     19  O   UNL     1      -3.790   0.699   0.514  0.00  0.00    -0.491 OA
ATOM     20  C   UNL     1      -4.797   1.604   0.056  0.00  0.00    +0.277 C 
ENDBRANCH   3  19
TORSDOF 1
