REMARK  Name = 5359272
REMARK  2 active torsions:
REMARK  status: ('A' for Active; 'I' for Inactive)
REMARK    1  A    between atoms: O_1  and  C_18
REMARK    2  A    between atoms: N_2  and  C_16
REMARK                            x       y       z     vdW  Elec       q    Type
REMARK                         _______ _______ _______ _____ _____    ______ ____
ROOT
ATOM      3  C   UNL     1       3.187   0.205  -0.316  0.00  0.00    +0.117 A 
ATOM      4  C   UNL     1       3.174   1.118   0.731  0.00  0.00    +0.045 A 
ATOM      5  C   UNL     1       1.963   1.484   1.310  0.00  0.00    +0.007 A 
ATOM      6  C   UNL     1       0.752   0.936   0.853  0.00  0.00    -0.042 A 
ATOM      7  C   UNL     1      -0.526   1.393   1.520  0.00  0.00    +0.054 C 
ATOM      8  C   UNL     1      -1.827   0.879   0.870  0.00  0.00    +0.065 C 
ATOM      9  C   UNL     1      -1.657  -0.576   0.397  0.00  0.00    +0.017 C 
ATOM     10  C   UNL     1      -1.377  -1.565   1.546  0.00  0.00    +0.006 C 
ATOM     11  C   UNL     1      -1.217  -2.990   1.021  0.00  0.00    +0.000 C 
ATOM     12  C   UNL     1      -0.165  -3.074  -0.079  0.00  0.00    +0.001 C 
ATOM     13  C   UNL     1      -0.452  -2.080  -1.206  0.00  0.00    +0.012 C 
ATOM     14  C   UNL     1      -0.566  -0.613  -0.707  0.00  0.00    +0.002 C 
ATOM     15  C   UNL     1      -1.063   0.285  -1.873  0.00  0.00    +0.027 C 
ATOM     16  C   UNL     1      -1.412   1.712  -1.422  0.00  0.00    +0.085 C 
ATOM     17  N   UNL     1      -2.258   1.787  -0.222  0.00  0.00    -0.302 NA
ATOM     18  C   UNL     1      -3.672   1.613  -0.558  0.00  0.00    +0.105 C 
ATOM     19  C   UNL     1       0.758  -0.020  -0.189  0.00  0.00    -0.034 A 
ATOM     20  C   UNL     1       1.992  -0.352  -0.776  0.00  0.00    +0.049 A 
ENDROOT
BRANCH   3   1
ATOM      1  O   UNL     1       4.367  -0.143  -0.899  0.00  0.00    -0.507 OA
ATOM      2  H   UNL     1       4.193  -0.787  -1.607  0.00  0.00    +0.292 HD
ENDBRANCH   3   1
TORSDOF 1
