REMARK  Name = 4058
REMARK  6 active torsions:
REMARK  status: ('A' for Active; 'I' for Inactive)
REMARK    1  A    between atoms: O_1  and  C_10
REMARK    2  A    between atoms: O_1  and  C_17
REMARK    3  A    between atoms: N_3  and  C_11
REMARK    4  A    between atoms: C_4  and  C_9
REMARK    5  A    between atoms: C_4  and  C_10
REMARK    6  A    between atoms: C_17  and  C_18
REMARK                            x       y       z     vdW  Elec       q    Type
REMARK                         _______ _______ _______ _____ _____    ______ ____
ROOT
ATOM      5  C   UNL     1       0.234  -0.566  -0.257  0.00  0.00    +0.095 C 
ATOM     12  C   UNL     1       0.830  -1.203   1.028  0.00  0.00    +0.038 C 
ATOM     13  C   UNL     1       2.247  -0.711   1.351  0.00  0.00    +0.085 C 
ATOM     14  N   UNL     1       3.158  -0.926   0.221  0.00  0.00    -0.305 NA
ATOM     15  C   UNL     1       4.508  -0.473   0.556  0.00  0.00    +0.104 C 
ATOM     16  C   UNL     1       2.672  -0.251  -0.987  0.00  0.00    +0.085 C 
ATOM     17  C   UNL     1       1.287  -0.773  -1.379  0.00  0.00    +0.038 C 
ENDROOT
BRANCH   5   6
ATOM      6  C   UNL     1      -0.215   0.898  -0.137  0.00  0.00    -0.031 A 
ATOM      7  C   UNL     1      -0.048   1.577   1.066  0.00  0.00    +0.005 A 
ATOM      8  C   UNL     1      -0.456   2.907   1.175  0.00  0.00    +0.000 A 
ATOM      9  C   UNL     1      -1.030   3.552   0.079  0.00  0.00    +0.000 A 
ATOM     10  C   UNL     1      -1.196   2.867  -1.125  0.00  0.00    +0.000 A 
ATOM     11  C   UNL     1      -0.788   1.538  -1.233  0.00  0.00    +0.005 A 
ENDBRANCH   5   6
BRANCH   5   4
ATOM      4  C   UNL     1      -0.986  -1.390  -0.608  0.00  0.00    +0.318 C 
ATOM     18  O   UNL     1      -1.090  -2.062  -1.626  0.00  0.00    -0.250 OA
BRANCH   4   1
ATOM      1  O   UNL     1      -1.923  -1.258   0.373  0.00  0.00    -0.464 OA
BRANCH   1   2
ATOM      2  C   UNL     1      -3.137  -1.988   0.167  0.00  0.00    +0.229 C 
ATOM      3  C   UNL     1      -4.067  -1.739   1.335  0.00  0.00    +0.048 C 
ENDBRANCH   1   2
ENDBRANCH   4   1
ENDBRANCH   5   4
TORSDOF 4
