REMARK  Name = 4095
REMARK  11 active torsions:
REMARK  status: ('A' for Active; 'I' for Inactive)
REMARK    1  A    between atoms: N_2  and  C_5
REMARK    2  A    between atoms: N_2  and  C_15
REMARK    3  A    between atoms: N_2  and  C_16
REMARK    4  A    between atoms: C_3  and  C_4
REMARK    5  A    between atoms: C_3  and  C_6
REMARK    6  A    between atoms: C_3  and  C_7
REMARK    7  A    between atoms: C_3  and  C_8
REMARK    8  A    between atoms: C_4  and  C_5
REMARK    9  A    between atoms: C_5  and  C_9
REMARK   10  A    between atoms: C_8  and  C_10
REMARK   11  A    between atoms: C_10  and  C_17
REMARK                            x       y       z     vdW  Elec       q    Type
REMARK                         _______ _______ _______ _____ _____    ______ ____
ROOT
ATOM      5  C   UNL     1      -0.324   0.306  -0.045  0.00  0.00    +0.080 C 
ENDROOT
BRANCH   5   6
ATOM      6  C   UNL     1       0.529  -0.962  -0.334  0.00  0.00    -0.030 A 
ATOM      7  C   UNL     1       1.540  -0.851  -1.244  0.00  0.00    +0.005 A 
ATOM      8  C   UNL     1       2.306  -1.988  -1.503  0.00  0.00    +0.000 A 
ATOM      9  C   UNL     1       2.026  -3.183  -0.840  0.00  0.00    +0.000 A 
ATOM     10  C   UNL     1       0.981  -3.242   0.081  0.00  0.00    +0.000 A 
ATOM     11  C   UNL     1       0.215  -2.105   0.340  0.00  0.00    +0.005 A 
ENDBRANCH   5   6
BRANCH   5  12
ATOM     12  C   UNL     1      -1.777  -0.113   0.350  0.00  0.00    -0.030 A 
ATOM     13  C   UNL     1      -2.225   0.263   1.579  0.00  0.00    +0.005 A 
ATOM     14  C   UNL     1      -3.522  -0.111   1.931  0.00  0.00    +0.000 A 
ATOM     15  C   UNL     1      -4.305  -0.842   1.037  0.00  0.00    +0.000 A 
ATOM     16  C   UNL     1      -3.791  -1.199  -0.209  0.00  0.00    +0.000 A 
ATOM     17  C   UNL     1      -2.494  -0.825  -0.562  0.00  0.00    +0.005 A 
ENDBRANCH   5  12
BRANCH   5   2
ATOM      1  O   UNL     1      -0.646   0.768  -2.442  0.00  0.00    -0.296 OA
ATOM      2  C   UNL     1      -0.531   1.230  -1.303  0.00  0.00    +0.148 C 
BRANCH   2   3
ATOM      3  C   UNL     1      -0.716   2.730  -1.069  0.00  0.00    +0.072 C 
ATOM      4  C   UNL     1      -1.577   3.384  -2.138  0.00  0.00    +0.012 C 
ENDBRANCH   2   3
ENDBRANCH   5   2
BRANCH   5  18
ATOM     18  C   UNL     1       0.402   1.111   1.098  0.00  0.00    +0.042 C 
BRANCH  18  19
ATOM     19  C   UNL     1       1.820   1.663   0.798  0.00  0.00    +0.055 C 
ATOM     20  C   UNL     1       2.322   2.507   1.973  0.00  0.00    +0.024 C 
BRANCH  19  21
ATOM     21  N   UNL     1       2.780   0.584   0.563  0.00  0.00    -0.306 NA
ATOM     22  C   UNL     1       4.082   1.132   0.187  0.00  0.00    +0.104 C 
ATOM     23  C   UNL     1       2.902  -0.257   1.753  0.00  0.00    +0.104 C 
ENDBRANCH  19  21
ENDBRANCH  18  19
ENDBRANCH   5  18
TORSDOF 7
