REMARK  Name = 3034396
REMARK  10 active torsions:
REMARK  status: ('A' for Active; 'I' for Inactive)
REMARK    1  A    between atoms: O_1  and  C_21
REMARK    2  A    between atoms: O_1  and  C_27
REMARK    3  A    between atoms: O_2  and  C_22
REMARK    4  A    between atoms: O_2  and  C_28
REMARK    5  A    between atoms: O_3  and  C_23
REMARK    6  A    between atoms: O_3  and  C_29
REMARK    7  A    between atoms: C_8  and  C_16
REMARK    8  A    between atoms: C_9  and  C_17
REMARK    9  A    between atoms: C_16  and  C_20
REMARK   10  A    between atoms: C_17  and  C_22
REMARK                            x       y       z     vdW  Elec       q    Type
REMARK                         _______ _______ _______ _____ _____    ______ ____
ROOT
ATOM      3  C   UNL     1       4.871   0.032   0.003  0.00  0.00    +0.129 A 
ATOM      4  C   UNL     1       5.702   1.158  -0.002  0.00  0.00    +0.046 A 
ATOM      5  C   UNL     1       5.191   2.420  -0.297  0.00  0.00    +0.006 A 
ATOM      6  C   UNL     1       3.838   2.598  -0.595  0.00  0.00    +0.026 A 
ATOM      7  C   UNL     1       3.016   1.465  -0.586  0.00  0.00    +0.050 A 
ATOM      8  N   UNL     1       1.666   1.348  -0.842  0.00  0.00    -0.356 N 
ATOM      9  H   UNL     1       1.058   2.115  -1.093  0.00  0.00    +0.166 HD
ATOM     10  C   UNL     1       1.282   0.044  -0.701  0.00  0.00    +0.038 A 
ATOM     11  C   UNL     1       2.397  -0.703  -0.383  0.00  0.00    -0.013 A 
ATOM     12  C   UNL     1       2.305  -2.175  -0.179  0.00  0.00    +0.053 C 
ATOM     13  C   UNL     1       0.966  -2.725  -0.724  0.00  0.00    +0.090 C 
ATOM     14  N   UNL     1      -0.171  -1.871  -0.316  0.00  0.00    -0.293 NA
ATOM     15  C   UNL     1      -1.458  -2.504  -0.626  0.00  0.00    +0.089 C 
ATOM     16  C   UNL     1      -2.630  -1.696  -0.030  0.00  0.00    +0.011 C 
ATOM     19  C   UNL     1      -2.585  -0.242  -0.561  0.00  0.00    +0.035 C 
ATOM     28  C   UNL     1      -1.195   0.383  -0.344  0.00  0.00    +0.034 C 
ATOM     29  C   UNL     1      -0.090  -0.514  -0.925  0.00  0.00    +0.104 C 
ATOM     30  C   UNL     1       3.502   0.186  -0.294  0.00  0.00    +0.045 A 
ENDROOT
BRANCH   3   1
ATOM      1  O   UNL     1       5.408  -1.192   0.299  0.00  0.00    -0.494 OA
ATOM      2  C   UNL     1       5.413  -1.575   1.669  0.00  0.00    +0.277 C 
ENDBRANCH   3   1
BRANCH  16  17
ATOM     17  C   UNL     1      -2.626  -1.792   1.504  0.00  0.00    +0.002 C 
ATOM     18  C   UNL     1      -2.731  -3.231   1.959  0.00  0.00    +0.004 C 
ENDBRANCH  16  17
BRANCH  19  20
ATOM     20  C   UNL     1      -3.668   0.628   0.003  0.00  0.00    +0.074 C 
ATOM     21  C   UNL     1      -4.890   0.731  -0.541  0.00  0.00    +0.197 C 
BRANCH  21  22
ATOM     22  O   UNL     1      -5.283   0.055  -1.666  0.00  0.00    -0.502 OA
ATOM     23  C   UNL     1      -6.256   0.789  -2.390  0.00  0.00    +0.276 C 
ENDBRANCH  21  22
BRANCH  20  24
ATOM     24  C   UNL     1      -3.307   1.395   1.232  0.00  0.00    +0.338 C 
ATOM     25  O   UNL     1      -3.474   0.951   2.360  0.00  0.00    -0.245 OA
BRANCH  24  26
ATOM     26  O   UNL     1      -2.785   2.614   0.929  0.00  0.00    -0.465 OA
ATOM     27  C   UNL     1      -2.407   3.424   2.047  0.00  0.00    +0.280 C 
ENDBRANCH  24  26
ENDBRANCH  20  24
ENDBRANCH  19  20
TORSDOF 6
