REMARK  Name = 5288826
REMARK  3 active torsions:
REMARK  status: ('A' for Active; 'I' for Inactive)
REMARK    1  A    between atoms: O_2  and  C_14
REMARK    2  A    between atoms: O_3  and  C_20
REMARK    3  A    between atoms: N_4  and  C_18
REMARK                            x       y       z     vdW  Elec       q    Type
REMARK                         _______ _______ _______ _____ _____    ______ ____
ROOT
ATOM      1  O   UNL     1      -1.993  -0.474   1.200  0.00  0.00    -0.481 OA
ATOM      2  C   UNL     1      -1.567   0.631   0.514  0.00  0.00    +0.166 A 
ATOM      3  C   UNL     1      -2.331   1.722   0.162  0.00  0.00    +0.159 A 
ATOM      4  C   UNL     1      -1.738   2.694  -0.654  0.00  0.00    +0.049 A 
ATOM      5  C   UNL     1      -0.418   2.542  -1.125  0.00  0.00    +0.008 A 
ATOM      6  C   UNL     1       0.338   1.431  -0.748  0.00  0.00    -0.038 A 
ATOM      7  C   UNL     1       1.689   1.105  -1.328  0.00  0.00    +0.055 C 
ATOM      8  C   UNL     1       2.344  -0.202  -0.764  0.00  0.00    +0.068 C 
ATOM      9  C   UNL     1       1.291  -1.305  -0.417  0.00  0.00    +0.043 C 
ATOM     10  C   UNL     1       0.507  -1.818  -1.597  0.00  0.00    -0.023 C 
ATOM     11  C   UNL     1      -0.716  -2.349  -1.442  0.00  0.00    +0.004 C 
ATOM     12  C   UNL     1      -1.363  -2.507  -0.092  0.00  0.00    +0.178 C 
ATOM     15  C   UNL     1       0.370  -0.715   0.662  0.00  0.00    +0.048 C 
ATOM     16  C   UNL     1       1.199  -0.391   1.920  0.00  0.00    +0.031 C 
ATOM     17  C   UNL     1       2.432   0.475   1.613  0.00  0.00    +0.085 C 
ATOM     18  N   UNL     1       3.178  -0.010   0.447  0.00  0.00    -0.301 NA
ATOM     19  C   UNL     1       4.373   0.792   0.208  0.00  0.00    +0.105 C 
ATOM     22  C   UNL     1      -0.252   0.530   0.121  0.00  0.00    +0.012 A 
ATOM     23  C   UNL     1      -0.938  -1.475   0.985  0.00  0.00    +0.217 C 
ENDROOT
BRANCH  12  13
ATOM     13  O   UNL     1      -2.783  -2.517  -0.222  0.00  0.00    -0.384 OA
ATOM     14  H   UNL     1      -3.156  -2.645   0.667  0.00  0.00    +0.210 HD
ENDBRANCH  12  13
BRANCH   3  20
ATOM     20  O   UNL     1      -3.622   1.842   0.558  0.00  0.00    -0.503 OA
ATOM     21  H   UNL     1      -3.848   1.069   1.103  0.00  0.00    +0.292 HD
ENDBRANCH   3  20
TORSDOF 2
