REMARK  Name = 5284596
REMARK  4 active torsions:
REMARK  status: ('A' for Active; 'I' for Inactive)
REMARK    1  A    between atoms: O_2  and  C_7
REMARK    2  A    between atoms: O_4  and  C_21
REMARK    3  A    between atoms: N_5  and  C_19
REMARK    4  A    between atoms: C_19  and  C_23
REMARK                            x       y       z     vdW  Elec       q    Type
REMARK                         _______ _______ _______ _____ _____    ______ ____
ROOT
ATOM      1  O   UNL     1      -2.348  -0.043  -1.475  0.00  0.00    -0.476 OA
ATOM      2  C   UNL     1      -1.904  -0.985  -0.577  0.00  0.00    +0.167 A 
ATOM      3  C   UNL     1      -2.532  -2.156  -0.219  0.00  0.00    +0.159 A 
ATOM      4  C   UNL     1      -1.948  -2.916   0.805  0.00  0.00    +0.049 A 
ATOM      5  C   UNL     1      -0.773  -2.486   1.459  0.00  0.00    +0.008 A 
ATOM      6  C   UNL     1      -0.144  -1.303   1.071  0.00  0.00    -0.038 A 
ATOM      7  C   UNL     1       1.036  -0.694   1.782  0.00  0.00    +0.057 C 
ATOM      8  C   UNL     1       1.609   0.601   1.104  0.00  0.00    +0.094 C 
ATOM      9  C   UNL     1       0.483   1.501   0.491  0.00  0.00    +0.096 C 
ATOM     10  C   UNL     1      -0.518   2.054   1.520  0.00  0.00    +0.045 C 
ATOM     11  C   UNL     1      -1.631   2.840   0.828  0.00  0.00    +0.081 C 
ATOM     12  C   UNL     1      -2.380   1.964  -0.150  0.00  0.00    +0.175 C 
ATOM     13  O   UNL     1      -3.612   1.973  -0.187  0.00  0.00    -0.293 OA
ATOM     14  C   UNL     1      -0.210   0.652  -0.585  0.00  0.00    +0.075 C 
ATOM     15  C   UNL     1       0.803   0.298  -1.700  0.00  0.00    +0.034 C 
ATOM     16  C   UNL     1       2.081  -0.354  -1.140  0.00  0.00    +0.086 C 
ATOM     19  N   UNL     1       2.610   0.344   0.036  0.00  0.00    -0.293 NA
ATOM     25  C   UNL     1      -0.718  -0.610   0.022  0.00  0.00    +0.014 A 
ATOM     26  C   UNL     1      -1.555   1.142  -1.144  0.00  0.00    +0.252 C 
ENDROOT
BRANCH   9  17
ATOM     17  O   UNL     1       1.092   2.646  -0.130  0.00  0.00    -0.386 OA
ATOM     18  H   UNL     1       0.469   3.020  -0.774  0.00  0.00    +0.210 HD
ENDBRANCH   9  17
BRANCH   3  23
ATOM     23  O   UNL     1      -3.689  -2.551  -0.804  0.00  0.00    -0.503 OA
ATOM     24  H   UNL     1      -3.933  -1.890  -1.476  0.00  0.00    +0.292 HD
ENDBRANCH   3  23
BRANCH  19  20
ATOM     20  C   UNL     1       3.837  -0.278   0.521  0.00  0.00    +0.111 C 
BRANCH  20  21
ATOM     21  C   UNL     1       4.911  -0.269  -0.524  0.00  0.00    -0.019 C 
ATOM     22  C   UNL     1       5.497  -1.371  -1.004  0.00  0.00    +0.005 C 
ENDBRANCH  20  21
ENDBRANCH  19  20
TORSDOF 4
