REMARK  Name = NAP
REMARK  19 active torsions:
REMARK  status: ('A' for Active; 'I' for Inactive)
REMARK    1  A    between atoms: P_1  and  O_3
REMARK    2  A    between atoms: P_1  and  O_4
REMARK    3  A    between atoms: P_1  and  O_23
REMARK    4  A    between atoms: O_4  and  C_5
REMARK    5  A    between atoms: C_5  and  C_6
REMARK    6  A    between atoms: C_8  and  O_9
REMARK    7  A    between atoms: C_10  and  O_11
REMARK    8  A    between atoms: O_11  and  P_45
REMARK    9  A    between atoms: C_12  and  N_13
REMARK   10  A    between atoms: O_23  and  P_24
REMARK   11  A    between atoms: P_24  and  O_27
REMARK   12  A    between atoms: O_27  and  C_28
REMARK   13  A    between atoms: C_28  and  C_29
REMARK   14  A    between atoms: C_31  and  O_32
REMARK   15  A    between atoms: C_33  and  O_34
REMARK   16  A    between atoms: C_35  and  N_36
REMARK   17  A    between atoms: C_38  and  C_39
REMARK   18  A    between atoms: P_45  and  O_47
REMARK   19  A    between atoms: P_45  and  O_48
REMARK                            x       y       z     vdW  Elec       q    Type
REMARK                         _______ _______ _______ _____ _____    ______ ____
ROOT
ATOM      1  P   UNL     1      17.174  26.134  12.040  0.00  0.00    +0.480 P 
ATOM     58  O   UNL     1      16.048  25.314  12.500  0.00  0.00    -0.227 OA
ENDROOT
BRANCH   1  56
ATOM     56  O   UNL     1      18.478  26.114  12.670  0.00  0.00    -0.302 OA
ATOM     57  H   UNL     1      19.207  26.645  12.372  0.00  0.00    +0.222 HD
ENDBRANCH   1  56
BRANCH   1   2
ATOM      2  O   UNL     1      16.458  27.566  12.208  0.00  0.00    -0.229 OA
BRANCH   2   3
ATOM      3  P   UNL     1      15.216  28.068  13.153  0.00  0.00    +0.222 P 
ATOM     26  O   UNL     1      15.308  29.554  13.093  0.00  0.00    -0.437 OA
ATOM     27  O   UNL     1      13.983  27.417  12.642  0.00  0.00    -0.517 OA
BRANCH   3   4
ATOM      4  O   UNL     1      15.487  27.658  14.685  0.00  0.00    -0.324 OA
BRANCH   4   5
ATOM      5  C   UNL     1      16.599  28.169  15.475  0.00  0.00    +0.202 C 
BRANCH   5   6
ATOM      6  C   UNL     1      17.395  26.968  16.025  0.00  0.00    +0.182 C 
ATOM      7  C   UNL     1      16.694  26.193  17.167  0.00  0.00    +0.183 C 
ATOM      8  C   UNL     1      17.093  26.936  18.393  0.00  0.00    +0.244 C 
ATOM      9  C   UNL     1      18.569  27.243  18.038  0.00  0.00    +0.439 C 
ATOM     25  O   UNL     1      18.653  27.366  16.614  0.00  0.00    -0.309 OA
BRANCH   9  10
ATOM     10  N   UNL     1      19.125  28.361  18.811  0.00  0.00    -0.173 N 
ATOM     11  C   UNL     1      20.202  28.129  19.681  0.00  0.00    +0.311 A 
ATOM     12  C   UNL     1      20.746  29.139  20.435  0.00  0.00    +0.071 A 
ATOM     13  C   UNL     1      20.222  30.376  20.317  0.00  0.00    +0.025 A 
ATOM     14  C   UNL     1      19.141  30.683  19.465  0.00  0.00    +0.100 A 
ATOM     20  C   UNL     1      18.555  29.641  18.667  0.00  0.00    +0.324 A 
BRANCH  14  15
ATOM     15  C   UNL     1      18.652  32.050  19.414  0.00  0.00    +0.247 C 
ATOM     16  N   UNL     1      17.622  32.390  18.616  0.00  0.00    -0.325 N 
ATOM     17  H   UNL     1      17.278  33.349  18.580  0.00  0.00    +0.145 HD
ATOM     18  H   UNL     1      17.202  31.653  18.048  0.00  0.00    +0.145 HD
ATOM     19  O   UNL     1      19.161  32.943  20.102  0.00  0.00    -0.270 OA
ENDBRANCH  14  15
ENDBRANCH   9  10
BRANCH   8  21
ATOM     21  O   UNL     1      16.979  26.205  19.588  0.00  0.00    -0.380 OA
ATOM     22  H   UNL     1      17.233  26.679  20.370  0.00  0.00    +0.210 HD
ENDBRANCH   8  21
BRANCH   7  23
ATOM     23  O   UNL     1      17.085  24.806  17.287  0.00  0.00    -0.386 OA
ATOM     24  H   UNL     1      16.654  24.330  17.987  0.00  0.00    +0.210 HD
ENDBRANCH   7  23
ENDBRANCH   5   6
ENDBRANCH   4   5
ENDBRANCH   3   4
ENDBRANCH   2   3
ENDBRANCH   1   2
BRANCH   1  28
ATOM     28  O   UNL     1      17.317  25.889  10.437  0.00  0.00    -0.284 OA
BRANCH  28  29
ATOM     29  C   UNL     1      17.813  26.990   9.495  0.00  0.00    +0.206 C 
BRANCH  29  30
ATOM     30  C   UNL     1      17.962  26.155   8.345  0.00  0.00    +0.178 C 
ATOM     31  C   UNL     1      18.840  25.789   7.535  0.00  0.00    +0.179 C 
ATOM     32  C   UNL     1      19.276  25.751   6.147  0.00  0.00    +0.211 C 
ATOM     33  C   UNL     1      18.394  26.894   5.988  0.00  0.00    +0.254 C 
ATOM     55  O   UNL     1      17.859  27.351   7.294  0.00  0.00    -0.346 OA
BRANCH  33  34
ATOM     34  N   UNL     1      19.237  28.090   5.590  0.00  0.00    -0.285 N 
ATOM     35  C   UNL     1      18.962  28.758   4.395  0.00  0.00    +0.167 A 
ATOM     36  N   UNL     1      17.859  28.574   3.579  0.00  0.00    -0.216 NA
ATOM     37  C   UNL     1      17.867  29.350   2.480  0.00  0.00    +0.225 A 
ATOM     38  N   UNL     1      18.841  30.230   2.153  0.00  0.00    -0.219 NA
ATOM     39  C   UNL     1      19.935  30.402   2.975  0.00  0.00    +0.147 A 
ATOM     40  N   UNL     1      20.889  31.262   2.635  0.00  0.00    -0.341 N 
ATOM     41  H   UNL     1      21.774  30.755   2.625  0.00  0.00    +0.144 HD
ATOM     42  H   UNL     1      20.840  31.816   1.780  0.00  0.00    +0.144 HD
ATOM     43  C   UNL     1      20.003  29.624   4.173  0.00  0.00    +0.147 A 
ATOM     44  N   UNL     1      20.935  29.548   5.192  0.00  0.00    -0.231 NA
ATOM     45  C   UNL     1      20.466  28.637   6.011  0.00  0.00    +0.203 A 
ENDBRANCH  33  34
BRANCH  31  53
ATOM     53  O   UNL     1      18.208  24.597   7.839  0.00  0.00    -0.386 OA
ATOM     54  H   UNL     1      18.875  24.318   7.223  0.00  0.00    +0.210 HD
ENDBRANCH  31  53
BRANCH  32  46
ATOM     46  O   UNL     1      18.883  24.739   5.481  0.00  0.00    -0.276 OA
BRANCH  46  47
ATOM     47  P   UNL     1      19.664  24.555   4.097  0.00  0.00    +0.473 P 
ATOM     52  O   UNL     1      21.117  24.360   4.404  0.00  0.00    -0.228 OA
BRANCH  47  48
ATOM     48  O   UNL     1      19.391  25.798   3.381  0.00  0.00    -0.303 OA
ATOM     49  H   UNL     1      19.854  25.688   2.559  0.00  0.00    +0.222 HD
ENDBRANCH  47  48
BRANCH  47  50
ATOM     50  O   UNL     1      18.964  23.410   3.543  0.00  0.00    -0.303 OA
ATOM     51  H   UNL     1      19.427  23.300   2.721  0.00  0.00    +0.222 HD
ENDBRANCH  47  50
ENDBRANCH  46  47
ENDBRANCH  32  46
ENDBRANCH  29  30
ENDBRANCH  28  29
ENDBRANCH   1  28
TORSDOF 19
