REMARK  Name = 66553195
REMARK  8 active torsions:
REMARK  status: ('A' for Active; 'I' for Inactive)
REMARK    1  A    between atoms: O_3  and  C_24
REMARK    2  A    between atoms: O_3  and  C_27
REMARK    3  A    between atoms: N_5  and  C_17
REMARK    4  A    between atoms: N_5  and  C_21
REMARK    5  A    between atoms: C_7  and  C_14
REMARK    6  A    between atoms: C_7  and  C_16
REMARK    7  A    between atoms: C_14  and  C_17
REMARK    8  A    between atoms: C_21  and  C_23
REMARK                            x       y       z     vdW  Elec       q    Type
REMARK                         _______ _______ _______ _____ _____    ______ ____
ROOT
ATOM     13  C   UNL     1       1.431   0.506  -0.005  0.00  0.00    +0.019 C 
ATOM     20  C   UNL     1       1.685   1.395  -1.253  0.00  0.00    +0.041 C 
ATOM     21  C   UNL     1       3.148   1.402  -1.681  0.00  0.00    +0.161 C 
ATOM     22  O   UNL     1       3.995   1.834  -0.621  0.00  0.00    -0.373 OA
ATOM     23  C   UNL     1       3.907   1.051   0.576  0.00  0.00    +0.070 C 
ATOM     24  C   UNL     1       4.623  -0.297   0.427  0.00  0.00    +0.035 C 
ATOM     25  C   UNL     1       6.109   0.059   0.431  0.00  0.00    +0.003 C 
ATOM     26  C   UNL     1       6.227   1.354   1.231  0.00  0.00    +0.003 C 
ATOM     27  C   UNL     1       4.801   1.738   1.621  0.00  0.00    +0.035 C 
ATOM     28  C   UNL     1       2.453   0.979   1.071  0.00  0.00    +0.048 C 
ENDROOT
BRANCH  13  14
ATOM     14  C   UNL     1       1.490  -1.014  -0.257  0.00  0.00    +0.048 A 
ATOM     15  C   UNL     1       1.276  -1.886   0.799  0.00  0.00    +0.024 A 
ATOM     16  C   UNL     1       1.337  -3.250   0.539  0.00  0.00    +0.003 A 
ATOM     17  C   UNL     1       1.606  -3.695  -0.751  0.00  0.00    +0.020 A 
ATOM     18  C   UNL     1       1.805  -2.743  -1.737  0.00  0.00    +0.111 A 
ATOM     19  N   UNL     1       1.754  -1.409  -1.523  0.00  0.00    -0.259 NA
ENDBRANCH  13  14
BRANCH  13  12
ATOM     12  C   UNL     1      -0.001   0.813   0.499  0.00  0.00    +0.028 C 
BRANCH  12  11
ATOM     11  C   UNL     1      -1.042   0.373  -0.520  0.00  0.00    +0.082 C 
BRANCH  11   9
ATOM      9  N   UNL     1      -2.379   0.689  -0.031  0.00  0.00    -0.311 NA
ATOM     10  H   UNL     1      -2.443   1.690   0.153  0.00  0.00    +0.122 HD
BRANCH   9   8
ATOM      8  C   UNL     1      -3.392   0.307  -1.005  0.00  0.00    +0.127 C 
BRANCH   8   7
ATOM      1  S   UNL     1      -5.605   1.978  -1.152  0.00  0.00    -0.097 S 
ATOM      2  C   UNL     1      -6.983   1.664  -0.185  0.00  0.00    +0.049 A 
ATOM      3  C   UNL     1      -6.817   0.545   0.603  0.00  0.00    +0.053 A 
ATOM      4  C   UNL     1      -5.543  -0.062   0.410  0.00  0.00    +0.131 A 
ATOM      7  C   UNL     1      -4.782   0.616  -0.518  0.00  0.00    +0.045 A 
BRANCH   4   5
ATOM      5  O   UNL     1      -5.108  -1.165   1.043  0.00  0.00    -0.494 OA
ATOM      6  C   UNL     1      -5.993  -1.782   1.989  0.00  0.00    +0.277 C 
ENDBRANCH   4   5
ENDBRANCH   8   7
ENDBRANCH   9   8
ENDBRANCH  11   9
ENDBRANCH  12  11
ENDBRANCH  13  12
TORSDOF 7
