REMARK  Name = 5284603
REMARK  4 active torsions:
REMARK  status: ('A' for Active; 'I' for Inactive)
REMARK    1  A    between atoms: O_2  and  C_7
REMARK    2  A    between atoms: O_4  and  C_21
REMARK    3  A    between atoms: O_4  and  C_23
REMARK    4  A    between atoms: N_5  and  C_19
REMARK                            x       y       z     vdW  Elec       q    Type
REMARK                         _______ _______ _______ _____ _____    ______ ____
ROOT
ATOM      1  O   UNL     1      -1.573   1.105  -1.249  0.00  0.00    -0.476 OA
ATOM      2  C   UNL     1      -1.598  -0.041  -0.488  0.00  0.00    +0.167 A 
ATOM      3  C   UNL     1      -2.704  -0.770  -0.116  0.00  0.00    +0.162 A 
ATOM      4  C   UNL     1      -2.503  -1.847   0.759  0.00  0.00    +0.050 A 
ATOM      5  C   UNL     1      -1.219  -2.159   1.258  0.00  0.00    +0.008 A 
ATOM      6  C   UNL     1      -0.109  -1.415   0.856  0.00  0.00    -0.038 A 
ATOM      7  C   UNL     1       1.277  -1.583   1.422  0.00  0.00    +0.057 C 
ATOM      8  C   UNL     1       2.370  -0.678   0.750  0.00  0.00    +0.093 C 
ATOM      9  C   UNL     1       1.819   0.738   0.369  0.00  0.00    +0.096 C 
ATOM     10  C   UNL     1       1.351   1.581   1.569  0.00  0.00    +0.045 C 
ATOM     11  C   UNL     1       0.746   2.903   1.101  0.00  0.00    +0.081 C 
ATOM     12  C   UNL     1      -0.437   2.661   0.191  0.00  0.00    +0.175 C 
ATOM     13  O   UNL     1      -1.484   3.295   0.338  0.00  0.00    -0.293 OA
ATOM     14  C   UNL     1       0.689   0.503  -0.644  0.00  0.00    +0.075 C 
ATOM     15  C   UNL     1       1.263  -0.164  -1.916  0.00  0.00    +0.034 C 
ATOM     16  C   UNL     1       2.065  -1.438  -1.594  0.00  0.00    +0.085 C 
ATOM     19  N   UNL     1       2.988  -1.263  -0.469  0.00  0.00    -0.299 NA
ATOM     20  C   UNL     1       3.756  -2.476  -0.211  0.00  0.00    +0.105 C 
ATOM     23  C   UNL     1      -0.339  -0.397  -0.049  0.00  0.00    +0.014 A 
ATOM     24  C   UNL     1      -0.255   1.673  -0.965  0.00  0.00    +0.252 C 
ENDROOT
BRANCH   9  17
ATOM     17  O   UNL     1       2.871   1.489  -0.261  0.00  0.00    -0.386 OA
ATOM     18  H   UNL     1       2.473   2.207  -0.780  0.00  0.00    +0.210 HD
ENDBRANCH   9  17
BRANCH   3  21
ATOM     21  O   UNL     1      -3.947  -0.447  -0.548  0.00  0.00    -0.491 OA
ATOM     22  C   UNL     1      -5.029  -1.269  -0.103  0.00  0.00    +0.277 C 
ENDBRANCH   3  21
TORSDOF 2
