REMARK  Name = 5284604
REMARK  3 active torsions:
REMARK  status: ('A' for Active; 'I' for Inactive)
REMARK    1  A    between atoms: O_2  and  C_7
REMARK    2  A    between atoms: O_4  and  C_21
REMARK    3  A    between atoms: N_5  and  C_19
REMARK                            x       y       z     vdW  Elec       q    Type
REMARK                         _______ _______ _______ _____ _____    ______ ____
ROOT
ATOM      1  O   UNL     1      -1.979  -0.633   1.264  0.00  0.00    -0.476 OA
ATOM      2  C   UNL     1      -1.756   0.495   0.509  0.00  0.00    +0.167 A 
ATOM      3  C   UNL     1      -2.677   1.452   0.150  0.00  0.00    +0.159 A 
ATOM      4  C   UNL     1      -2.250   2.465  -0.722  0.00  0.00    +0.049 A 
ATOM      5  C   UNL     1      -0.933   2.489  -1.230  0.00  0.00    +0.008 A 
ATOM      6  C   UNL     1      -0.011   1.517  -0.842  0.00  0.00    -0.038 A 
ATOM      7  C   UNL     1       1.374   1.379  -1.418  0.00  0.00    +0.057 C 
ATOM      8  C   UNL     1       2.246   0.251  -0.760  0.00  0.00    +0.093 C 
ATOM      9  C   UNL     1       1.399  -1.011  -0.381  0.00  0.00    +0.096 C 
ATOM     10  C   UNL     1       0.748  -1.723  -1.581  0.00  0.00    +0.045 C 
ATOM     11  C   UNL     1      -0.131  -2.882  -1.114  0.00  0.00    +0.081 C 
ATOM     12  C   UNL     1      -1.225  -2.392  -0.193  0.00  0.00    +0.175 C 
ATOM     13  O   UNL     1      -2.386  -2.778  -0.334  0.00  0.00    -0.293 OA
ATOM     14  C   UNL     1       0.356  -0.540   0.642  0.00  0.00    +0.075 C 
ATOM     15  C   UNL     1       1.071  -0.024   1.913  0.00  0.00    +0.034 C 
ATOM     16  C   UNL     1       2.132   1.044   1.591  0.00  0.00    +0.085 C 
ATOM     19  N   UNL     1       2.986   0.677   0.456  0.00  0.00    -0.299 NA
ATOM     20  C   UNL     1       4.000   1.693   0.198  0.00  0.00    +0.105 C 
ATOM     23  C   UNL     1      -0.453   0.568   0.061  0.00  0.00    +0.014 A 
ATOM     24  C   UNL     1      -0.821  -1.475   0.966  0.00  0.00    +0.252 C 
ENDROOT
BRANCH   9  17
ATOM     17  O   UNL     1       2.264  -1.980   0.236  0.00  0.00    -0.386 OA
ATOM     18  H   UNL     1       1.721  -2.596   0.755  0.00  0.00    +0.210 HD
ENDBRANCH   9  17
BRANCH   3  21
ATOM     21  O   UNL     1      -3.958   1.409   0.590  0.00  0.00    -0.503 OA
ATOM     22  H   UNL     1      -4.056   0.634   1.170  0.00  0.00    +0.292 HD
ENDBRANCH   3  21
TORSDOF 2
