REMARK  Name = 441278
REMARK  7 active torsions:
REMARK  status: ('A' for Active; 'I' for Inactive)
REMARK    1  A    between atoms: O_1  and  C_16
REMARK    2  A    between atoms: N_2  and  C_13
REMARK    3  A    between atoms: C_3  and  C_11
REMARK    4  A    between atoms: C_4  and  C_12
REMARK    5  A    between atoms: C_13  and  C_18
REMARK    6  A    between atoms: C_19  and  C_20
REMARK    7  A    between atoms: C_19  and  C_21
REMARK                            x       y       z     vdW  Elec       q    Type
REMARK                         _______ _______ _______ _____ _____    ______ ____
ROOT
ATOM      3  C   UNL     1      -3.414  -1.700  -0.387  0.00  0.00    +0.117 A 
ATOM      4  C   UNL     1      -3.008  -2.180   0.851  0.00  0.00    +0.045 A 
ATOM      5  C   UNL     1      -1.992  -1.530   1.545  0.00  0.00    +0.007 A 
ATOM      6  C   UNL     1      -1.370  -0.390   1.008  0.00  0.00    -0.042 A 
ATOM      7  C   UNL     1      -1.792   0.121  -0.240  0.00  0.00    -0.034 A 
ATOM      8  C   UNL     1      -1.102   1.353  -0.846  0.00  0.00    -0.002 C 
ATOM      9  C   UNL     1      -2.047   2.193  -1.734  0.00  0.00    +0.016 C 
ATOM     10  C   UNL     1       0.079   0.857  -1.727  0.00  0.00    +0.027 C 
ATOM     11  C   UNL     1       1.191   0.172  -0.921  0.00  0.00    +0.086 C 
ATOM     12  N   UNL     1       1.601   0.976   0.230  0.00  0.00    -0.295 NA
ATOM     18  C   UNL     1       0.486   1.402   1.103  0.00  0.00    +0.065 C 
ATOM     19  C   UNL     1      -0.493   2.257   0.269  0.00  0.00    +0.014 C 
ATOM     20  C   UNL     1      -1.533   2.972   1.147  0.00  0.00    +0.010 C 
ATOM     21  C   UNL     1      -0.279   0.269   1.821  0.00  0.00    +0.054 C 
ATOM     22  C   UNL     1      -2.809  -0.564  -0.930  0.00  0.00    +0.049 A 
ENDROOT
BRANCH   3   1
ATOM      1  O   UNL     1      -4.399  -2.339  -1.076  0.00  0.00    -0.507 OA
ATOM      2  H   UNL     1      -4.702  -3.103  -0.556  0.00  0.00    +0.292 HD
ENDBRANCH   3   1
BRANCH  12  13
ATOM     13  C   UNL     1       2.698   0.344   0.956  0.00  0.00    +0.112 C 
BRANCH  13  14
ATOM     14  C   UNL     1       3.903   0.164   0.079  0.00  0.00    -0.013 C 
ATOM     15  C   UNL     1       4.525  -0.982  -0.261  0.00  0.00    -0.078 C 
ATOM     16  C   UNL     1       4.021  -2.303   0.260  0.00  0.00    +0.038 C 
ATOM     17  C   UNL     1       5.733  -1.091  -1.148  0.00  0.00    +0.038 C 
ENDBRANCH  13  14
ENDBRANCH  12  13
TORSDOF 3
