REMARK  Name = 10100
REMARK  13 active torsions:
REMARK  status: ('A' for Active; 'I' for Inactive)
REMARK    1  A    between atoms: O_1  and  C_4
REMARK    2  A    between atoms: O_1  and  C_13
REMARK    3  A    between atoms: N_3  and  C_7
REMARK    4  A    between atoms: N_3  and  C_14
REMARK    5  A    between atoms: N_3  and  C_15
REMARK    6  A    between atoms: C_4  and  C_5
REMARK    7  A    between atoms: C_4  and  C_6
REMARK    8  A    between atoms: C_4  and  C_8
REMARK    9  A    between atoms: C_5  and  C_7
REMARK   10  A    between atoms: C_5  and  C_9
REMARK   11  A    between atoms: C_6  and  C_10
REMARK   12  A    between atoms: C_13  and  C_20
REMARK   13  A    between atoms: C_20  and  C_25
REMARK                            x       y       z     vdW  Elec       q    Type
REMARK                         _______ _______ _______ _____ _____    ______ ____
ROOT
ATOM      6  C   UNL     1       0.292   0.040   0.256  0.00  0.00    +0.146 C 
ENDROOT
BRANCH   6   7
ATOM      7  C   UNL     1       1.739   0.377   0.655  0.00  0.00    -0.004 A 
ATOM      8  C   UNL     1       2.014   0.595   1.982  0.00  0.00    +0.007 A 
ATOM      9  C   UNL     1       3.325   0.900   2.345  0.00  0.00    +0.000 A 
ATOM     10  C   UNL     1       4.319   0.976   1.369  0.00  0.00    +0.000 A 
ATOM     11  C   UNL     1       4.000   0.748   0.030  0.00  0.00    +0.000 A 
ATOM     12  C   UNL     1       2.688   0.443  -0.333  0.00  0.00    +0.007 A 
ENDBRANCH   6   7
BRANCH   6  20
ATOM     20  C   UNL     1       0.083  -1.528   0.191  0.00  0.00    +0.049 C 
ATOM     21  C   UNL     1       0.294  -2.215   1.555  0.00  0.00    +0.013 C 
BRANCH  20  22
ATOM     22  C   UNL     1       1.008  -2.178  -0.875  0.00  0.00    +0.091 C 
BRANCH  22  23
ATOM     23  N   UNL     1       0.718  -3.594  -1.093  0.00  0.00    -0.308 NA
ATOM     24  C   UNL     1      -0.694  -3.782  -1.424  0.00  0.00    +0.104 C 
ATOM     25  C   UNL     1       1.568  -4.133  -2.154  0.00  0.00    +0.104 C 
ENDBRANCH  22  23
ENDBRANCH  20  22
ENDBRANCH   6  20
BRANCH   6   1
ATOM      1  O   UNL     1       0.019   0.552  -1.057  0.00  0.00    -0.453 OA
BRANCH   1   2
ATOM      2  C   UNL     1       0.149   1.903  -1.195  0.00  0.00    +0.308 C 
ATOM      5  O   UNL     1       0.471   2.690  -0.315  0.00  0.00    -0.251 OA
BRANCH   2   3
ATOM      3  C   UNL     1      -0.170   2.277  -2.624  0.00  0.00    +0.117 C 
ATOM      4  C   UNL     1      -0.066   3.774  -2.860  0.00  0.00    +0.015 C 
ENDBRANCH   2   3
ENDBRANCH   1   2
ENDBRANCH   6   1
BRANCH   6  13
ATOM     13  C   UNL     1      -0.708   0.717   1.247  0.00  0.00    +0.088 C 
BRANCH  13  14
ATOM     14  C   UNL     1      -2.177   0.467   0.969  0.00  0.00    -0.043 A 
ATOM     15  C   UNL     1      -2.795  -0.625   1.550  0.00  0.00    +0.004 A 
ATOM     16  C   UNL     1      -4.147  -0.856   1.293  0.00  0.00    +0.000 A 
ATOM     17  C   UNL     1      -4.856   0.010   0.461  0.00  0.00    +0.000 A 
ATOM     18  C   UNL     1      -4.214   1.106  -0.115  0.00  0.00    +0.000 A 
ATOM     19  C   UNL     1      -2.862   1.337   0.141  0.00  0.00    +0.004 A 
ENDBRANCH  13  14
ENDBRANCH   6  13
TORSDOF 9
