REMARK  Name = 121596705
REMARK  12 active torsions:
REMARK  status: ('A' for Active; 'I' for Inactive)
REMARK    1  A    between atoms: O_3  and  C_22
REMARK    2  A    between atoms: N_4  and  C_7
REMARK    3  A    between atoms: N_4  and  C_12
REMARK    4  A    between atoms: N_4  and  C_13
REMARK    5  A    between atoms: N_5  and  C_9
REMARK    6  A    between atoms: N_6  and  C_11
REMARK    7  A    between atoms: C_7  and  C_8
REMARK    8  A    between atoms: C_7  and  C_9
REMARK    9  A    between atoms: C_8  and  C_10
REMARK   10  A    between atoms: C_11  and  C_14
REMARK   11  A    between atoms: C_11  and  C_18
REMARK   12  A    between atoms: C_14  and  C_19
REMARK                            x       y       z     vdW  Elec       q    Type
REMARK                         _______ _______ _______ _____ _____    ______ ____
ROOT
ATOM      8  N   UNL     1       1.048   1.889  -1.349  0.00  0.00    -0.297 N 
ATOM      9  H   UNL     1       1.136   1.169  -2.060  0.00  0.00    +0.151 HD
ATOM     10  C   UNL     1      -0.188   2.075  -0.735  0.00  0.00    +0.300 C 
ATOM     11  N   UNL     1      -1.148   1.194  -1.238  0.00  0.00    -0.298 N 
ATOM     12  H   UNL     1      -0.879   0.589  -2.007  0.00  0.00    +0.150 HD
ATOM     27  O   UNL     1      -0.408   2.910   0.141  0.00  0.00    -0.253 OA
ENDROOT
BRANCH   8   6
ATOM      6  C   UNL     1       2.215   2.671  -1.013  0.00  0.00    +0.076 C 
ATOM      7  C   UNL     1       1.961   4.138  -1.345  0.00  0.00    +0.028 C 
BRANCH   6   5
ATOM      5  C   UNL     1       2.590   2.507   0.469  0.00  0.00    +0.057 C 
BRANCH   5   4
ATOM      1  S   UNL     1       3.822  -1.307   0.927  0.00  0.00    -0.105 S 
ATOM      2  C   UNL     1       2.587  -0.909   2.045  0.00  0.00    +0.045 A 
ATOM      3  C   UNL     1       2.157   0.391   1.899  0.00  0.00    +0.011 A 
ATOM      4  C   UNL     1       2.850   1.070   0.856  0.00  0.00    -0.039 A 
ATOM     28  C   UNL     1       3.784   0.263   0.244  0.00  0.00    +0.049 A 
ENDBRANCH   5   4
ENDBRANCH   6   5
ENDBRANCH   8   6
BRANCH  11  13
ATOM     13  C   UNL     1      -2.511   1.165  -0.785  0.00  0.00    +0.125 C 
BRANCH  13  14
ATOM     14  C   UNL     1      -2.729   0.206   0.394  0.00  0.00    +0.077 C 
BRANCH  14  24
ATOM     24  N   UNL     1      -3.955   0.604   1.100  0.00  0.00    -0.304 NA
ATOM     25  C   UNL     1      -4.997   0.957   0.140  0.00  0.00    +0.104 C 
ATOM     26  C   UNL     1      -3.680   1.721   1.999  0.00  0.00    +0.104 C 
ENDBRANCH  14  24
BRANCH  14  15
ATOM     15  C   UNL     1      -2.896  -1.269  -0.029  0.00  0.00    +0.055 C 
BRANCH  15  16
ATOM     16  C   UNL     1      -1.603  -2.014  -0.259  0.00  0.00    -0.046 A 
ATOM     17  C   UNL     1      -0.992  -2.692   0.795  0.00  0.00    +0.007 A 
ATOM     18  C   UNL     1       0.202  -3.381   0.583  0.00  0.00    +0.045 A 
ATOM     19  C   UNL     1       0.786  -3.391  -0.684  0.00  0.00    +0.117 A 
ATOM     20  C   UNL     1       0.175  -2.712  -1.738  0.00  0.00    +0.045 A 
ATOM     23  C   UNL     1      -1.020  -2.023  -1.526  0.00  0.00    +0.007 A 
BRANCH  19  21
ATOM     21  O   UNL     1       1.952  -4.061  -0.891  0.00  0.00    -0.507 OA
ATOM     22  H   UNL     1       2.234  -4.467  -0.053  0.00  0.00    +0.292 HD
ENDBRANCH  19  21
ENDBRANCH  15  16
ENDBRANCH  14  15
ENDBRANCH  13  14
ENDBRANCH  11  13
TORSDOF 9
