REMARK  Name = 60815
REMARK  12 active torsions:
REMARK  status: ('A' for Active; 'I' for Inactive)
REMARK    1  A    between atoms: O_1  and  C_13
REMARK    2  A    between atoms: O_1  and  C_23
REMARK    3  A    between atoms: O_4  and  C_21
REMARK    4  A    between atoms: O_4  and  C_27
REMARK    5  A    between atoms: N_6  and  C_14
REMARK    6  A    between atoms: N_7  and  C_8
REMARK    7  A    between atoms: N_7  and  C_15
REMARK    8  A    between atoms: C_8  and  C_13
REMARK    9  A    between atoms: C_14  and  C_17
REMARK   10  A    between atoms: C_16  and  C_18
REMARK   11  A    between atoms: C_17  and  C_21
REMARK   12  A    between atoms: C_18  and  C_22
REMARK                            x       y       z     vdW  Elec       q    Type
REMARK                         _______ _______ _______ _____ _____    ______ ____
ROOT
ATOM      4  C   UNL     1      -0.775   0.607   0.053  0.00  0.00    +0.141 C 
ATOM      5  C   UNL     1      -0.109   1.178  -1.202  0.00  0.00    +0.053 C 
ATOM      6  C   UNL     1       1.369   1.511  -0.974  0.00  0.00    +0.087 C 
ATOM      7  N   UNL     1       2.104   0.345  -0.467  0.00  0.00    -0.302 NA
ATOM     14  C   UNL     1       1.543  -0.118   0.809  0.00  0.00    +0.087 C 
ATOM     15  C   UNL     1       0.072  -0.518   0.655  0.00  0.00    +0.053 C 
ENDROOT
BRANCH   4  16
ATOM     16  N   UNL     1      -2.111   0.142  -0.241  0.00  0.00    -0.255 N 
ATOM     17  C   UNL     1      -3.128   0.987  -0.776  0.00  0.00    +0.220 C 
ATOM     20  O   UNL     1      -3.003   2.184  -1.048  0.00  0.00    -0.275 OA
BRANCH  16  21
ATOM     21  C   UNL     1      -2.435  -1.258   0.022  0.00  0.00    +0.037 A 
ATOM     22  C   UNL     1      -2.937  -1.636   1.268  0.00  0.00    +0.023 A 
ATOM     23  C   UNL     1      -3.246  -2.972   1.519  0.00  0.00    +0.002 A 
ATOM     24  C   UNL     1      -3.053  -3.931   0.524  0.00  0.00    +0.000 A 
ATOM     25  C   UNL     1      -2.551  -3.554  -0.721  0.00  0.00    +0.002 A 
ATOM     26  C   UNL     1      -2.242  -2.217  -0.972  0.00  0.00    +0.023 A 
ENDBRANCH  16  21
BRANCH  17  18
ATOM     18  C   UNL     1      -4.486   0.318  -0.972  0.00  0.00    +0.093 C 
ATOM     19  C   UNL     1      -5.528   1.258  -1.558  0.00  0.00    +0.013 C 
ENDBRANCH  17  18
ENDBRANCH   4  16
BRANCH   4   3
ATOM      3  C   UNL     1      -1.035   1.688   1.066  0.00  0.00    +0.331 C 
ATOM     27  O   UNL     1      -1.559   1.495   2.155  0.00  0.00    -0.248 OA
BRANCH   3   1
ATOM      1  O   UNL     1      -0.601   2.885   0.578  0.00  0.00    -0.466 OA
ATOM      2  C   UNL     1      -0.789   4.008   1.444  0.00  0.00    +0.280 C 
ENDBRANCH   3   1
ENDBRANCH   4   3
BRANCH   7   8
ATOM      8  C   UNL     1       3.524   0.662  -0.316  0.00  0.00    +0.095 C 
BRANCH   8   9
ATOM      9  C   UNL     1       4.356  -0.617  -0.317  0.00  0.00    +0.136 C 
BRANCH   9  10
ATOM     10  C   UNL     1       5.834  -0.327  -0.190  0.00  0.00    +0.308 C 
ATOM     11  O   UNL     1       6.331   0.788  -0.115  0.00  0.00    -0.251 OA
BRANCH  10  12
ATOM     12  O   UNL     1       6.517  -1.510  -0.172  0.00  0.00    -0.468 OA
ATOM     13  C   UNL     1       7.939  -1.400  -0.054  0.00  0.00    +0.280 C 
ENDBRANCH  10  12
ENDBRANCH   9  10
ENDBRANCH   8   9
ENDBRANCH   7   8
TORSDOF 9
