REMARK  Name = 41693
REMARK  10 active torsions:
REMARK  status: ('A' for Active; 'I' for Inactive)
REMARK    1  A    between atoms: O_2  and  C_11
REMARK    2  A    between atoms: O_2  and  C_20
REMARK    3  A    between atoms: N_4  and  C_12
REMARK    4  A    between atoms: N_5  and  C_6
REMARK    5  A    between atoms: N_5  and  C_13
REMARK    6  A    between atoms: C_6  and  C_11
REMARK    7  A    between atoms: C_12  and  C_15
REMARK    8  A    between atoms: C_14  and  C_16
REMARK    9  A    between atoms: C_15  and  C_19
REMARK   10  A    between atoms: C_16  and  C_21
REMARK                            x       y       z     vdW  Elec       q    Type
REMARK                         _______ _______ _______ _____ _____    ______ ____
ROOT
ATOM      8  N   UNL     1      -1.819   0.125   0.055  0.00  0.00    -0.302 NA
ATOM      9  C   UNL     1      -1.389  -1.177  -0.470  0.00  0.00    +0.086 C 
ATOM     10  C   UNL     1       0.084  -1.144  -0.889  0.00  0.00    +0.044 C 
ATOM     11  C   UNL     1       1.023  -0.689   0.244  0.00  0.00    +0.068 C 
ATOM     15  C   UNL     1       0.471   0.614   0.854  0.00  0.00    +0.044 C 
ATOM     27  C   UNL     1      -1.014   0.524   1.216  0.00  0.00    +0.086 C 
ENDROOT
BRANCH  11  16
ATOM     16  N   UNL     1       2.345  -0.433  -0.307  0.00  0.00    -0.263 N 
ATOM     17  C   UNL     1       3.109  -1.434  -0.965  0.00  0.00    +0.220 C 
ATOM     20  O   UNL     1       2.756  -2.603  -1.143  0.00  0.00    -0.275 OA
BRANCH  16  21
ATOM     21  C   UNL     1       2.908   0.904  -0.180  0.00  0.00    +0.037 A 
ATOM     22  C   UNL     1       3.677   1.234   0.936  0.00  0.00    +0.023 A 
ATOM     23  C   UNL     1       4.216   2.514   1.059  0.00  0.00    +0.002 A 
ATOM     24  C   UNL     1       3.986   3.466   0.065  0.00  0.00    +0.000 A 
ATOM     25  C   UNL     1       3.216   3.136  -1.051  0.00  0.00    +0.002 A 
ATOM     26  C   UNL     1       2.678   1.856  -1.173  0.00  0.00    +0.023 A 
ENDBRANCH  16  21
BRANCH  17  18
ATOM     18  C   UNL     1       4.492  -0.995  -1.438  0.00  0.00    +0.093 C 
ATOM     19  C   UNL     1       5.253  -2.104  -2.147  0.00  0.00    +0.013 C 
ENDBRANCH  17  18
ENDBRANCH  11  16
BRANCH   8   7
ATOM      7  C   UNL     1      -3.240   0.094   0.402  0.00  0.00    +0.089 C 
BRANCH   7   6
ATOM      6  C   UNL     1      -4.112   0.311  -0.836  0.00  0.00    +0.058 C 
BRANCH   6   5
ATOM      1  S   UNL     1      -6.621  -0.828  -1.235  0.00  0.00    -0.102 S 
ATOM      2  C   UNL     1      -7.977  -0.234  -0.374  0.00  0.00    +0.045 A 
ATOM      3  C   UNL     1      -7.640   0.803   0.468  0.00  0.00    +0.008 A 
ATOM      4  C   UNL     1      -6.251   1.115   0.405  0.00  0.00    +0.011 A 
ATOM      5  C   UNL     1      -5.579   0.303  -0.482  0.00  0.00    -0.009 A 
ENDBRANCH   6   5
ENDBRANCH   7   6
ENDBRANCH   8   7
BRANCH  11  12
ATOM     12  C   UNL     1       1.163  -1.782   1.315  0.00  0.00    +0.185 C 
BRANCH  12  13
ATOM     13  O   UNL     1       2.041  -1.310   2.317  0.00  0.00    -0.381 OA
ATOM     14  C   UNL     1       2.226  -2.269   3.354  0.00  0.00    +0.194 C 
ENDBRANCH  12  13
ENDBRANCH  11  12
TORSDOF 8
