REMARK  Name = 9838022
REMARK  10 active torsions:
REMARK  status: ('A' for Active; 'I' for Inactive)
REMARK    1  A    between atoms: O_1  and  C_14
REMARK    2  A    between atoms: N_2  and  C_5
REMARK    3  A    between atoms: N_2  and  C_12
REMARK    4  A    between atoms: N_2  and  C_13
REMARK    5  A    between atoms: C_3  and  C_4
REMARK    6  A    between atoms: C_3  and  C_6
REMARK    7  A    between atoms: C_3  and  C_7
REMARK    8  A    between atoms: C_4  and  C_5
REMARK    9  A    between atoms: C_4  and  C_8
REMARK   10  A    between atoms: C_6  and  C_9
REMARK                            x       y       z     vdW  Elec       q    Type
REMARK                         _______ _______ _______ _____ _____    ______ ____
ROOT
ATOM      8  C   UNL     1       0.126   1.455   0.258  0.00  0.00    +0.023 C 
ENDROOT
BRANCH   8   7
ATOM      3  C   UNL     1      -2.285  -1.283  -0.740  0.00  0.00    +0.117 A 
ATOM      4  C   UNL     1      -2.858  -1.606   0.490  0.00  0.00    +0.045 A 
ATOM      5  C   UNL     1      -2.459  -0.932   1.644  0.00  0.00    +0.004 A 
ATOM      6  C   UNL     1      -1.487   0.065   1.569  0.00  0.00    +0.004 A 
ATOM      7  C   UNL     1      -0.937   0.364   0.341  0.00  0.00    -0.041 A 
ATOM     17  C   UNL     1      -1.312  -0.286  -0.815  0.00  0.00    +0.049 A 
BRANCH   3   1
ATOM      1  O   UNL     1      -2.674  -1.940  -1.866  0.00  0.00    -0.507 OA
ATOM      2  H   UNL     1      -2.175  -1.591  -2.624  0.00  0.00    +0.292 HD
ENDBRANCH   3   1
ENDBRANCH   8   7
BRANCH   8   9
ATOM      9  C   UNL     1      -0.373   2.646  -0.601  0.00  0.00    +0.005 C 
ATOM     10  C   UNL     1      -1.625   3.319  -0.047  0.00  0.00    +0.004 C 
ENDBRANCH   8   9
BRANCH   8  11
ATOM     11  C   UNL     1       1.496   0.883  -0.248  0.00  0.00    +0.007 C 
ATOM     12  C   UNL     1       2.563   1.979  -0.402  0.00  0.00    +0.009 C 
BRANCH  11  13
ATOM     13  C   UNL     1       2.045  -0.262   0.641  0.00  0.00    +0.087 C 
BRANCH  13  14
ATOM     14  N   UNL     1       3.211  -0.932   0.075  0.00  0.00    -0.308 NA
ATOM     15  C   UNL     1       3.666  -2.008   0.957  0.00  0.00    +0.104 C 
ATOM     16  C   UNL     1       2.905  -1.461  -1.255  0.00  0.00    +0.104 C 
ENDBRANCH  13  14
ENDBRANCH  11  13
ENDBRANCH   8  11
TORSDOF 6
