REMARK  Name = 33741
REMARK  8 active torsions:
REMARK  status: ('A' for Active; 'I' for Inactive)
REMARK    1  A    between atoms: O_1  and  C_5
REMARK    2  A    between atoms: O_2  and  C_16
REMARK    3  A    between atoms: O_2  and  C_19
REMARK    4  A    between atoms: N_3  and  C_10
REMARK    5  A    between atoms: N_3  and  C_14
REMARK    6  A    between atoms: N_3  and  C_15
REMARK    7  A    between atoms: C_4  and  C_10
REMARK    8  A    between atoms: C_5  and  C_11
REMARK                            x       y       z     vdW  Elec       q    Type
REMARK                         _______ _______ _______ _____ _____    ______ ____
ROOT
ATOM      3  C   UNL     1      -0.698   1.076   0.390  0.00  0.00    +0.095 C 
ATOM     12  C   UNL     1      -0.784   2.354  -0.481  0.00  0.00    +0.040 C 
ATOM     13  C   UNL     1      -2.224   2.821  -0.699  0.00  0.00    +0.003 C 
ATOM     14  C   UNL     1      -3.080   1.712  -1.295  0.00  0.00    +0.001 C 
ATOM     15  C   UNL     1      -3.039   0.449  -0.441  0.00  0.00    +0.008 C 
ATOM     16  C   UNL     1      -1.598  -0.049  -0.211  0.00  0.00    +0.039 C 
ENDROOT
BRANCH   3   4
ATOM      4  C   UNL     1       0.764   0.631   0.523  0.00  0.00    -0.012 A 
ATOM      5  C   UNL     1       1.351   0.555   1.782  0.00  0.00    +0.007 A 
ATOM      6  C   UNL     1       2.681   0.152   1.903  0.00  0.00    +0.004 A 
ATOM      7  C   UNL     1       3.417  -0.173   0.764  0.00  0.00    +0.045 A 
ATOM      8  C   UNL     1       2.824  -0.096  -0.496  0.00  0.00    +0.120 A 
ATOM     11  C   UNL     1       1.494   0.308  -0.617  0.00  0.00    +0.052 A 
BRANCH   8   9
ATOM      9  O   UNL     1       3.543  -0.413  -1.608  0.00  0.00    -0.495 OA
ATOM     10  C   UNL     1       4.897  -0.817  -1.412  0.00  0.00    +0.277 C 
ENDBRANCH   8   9
ENDBRANCH   3   4
BRANCH   3   1
ATOM      1  O   UNL     1      -1.242   1.406   1.678  0.00  0.00    -0.384 OA
ATOM      2  H   UNL     1      -0.852   2.248   1.970  0.00  0.00    +0.211 HD
ENDBRANCH   3   1
BRANCH  16  17
ATOM     17  C   UNL     1      -1.647  -1.308   0.667  0.00  0.00    +0.090 C 
BRANCH  17  18
ATOM     18  N   UNL     1      -2.397  -2.362   0.009  0.00  0.00    -0.308 NA
ATOM     19  C   UNL     1      -1.814  -2.679  -1.298  0.00  0.00    +0.104 C 
ATOM     20  C   UNL     1      -2.447  -3.566   0.843  0.00  0.00    +0.104 C 
ENDBRANCH  17  18
ENDBRANCH  16  17
TORSDOF 5
