REMARK  Name = NSC 350085
REMARK  3 active torsions:
REMARK  status: ('A' for Active; 'I' for Inactive)
REMARK    1  A    between atoms: C_7  and  O_8
REMARK    2  A    between atoms: O_8  and  C_9
REMARK    3  A    between atoms: C_16  and  O_17
REMARK                            x       y       z     vdW  Elec       q    Type
REMARK                         _______ _______ _______ _____ _____    ______ ____
ROOT
ATOM      1  C   UNL     1      -8.596  -2.463   0.000  0.00  0.00    +0.218 C 
ATOM      2  C   UNL     1      -7.715  -1.250   0.000  0.00  0.00    +0.105 C 
ATOM      3  C   UNL     1      -6.288  -1.713   0.000  0.00  0.00    +0.005 A 
ATOM      4  C   UNL     1      -4.989  -0.963   0.000  0.00  0.00    +0.011 A 
ATOM      5  C   UNL     1      -3.690  -1.713   0.000  0.00  0.00    +0.046 A 
ATOM      6  C   UNL     1      -3.690  -3.213   0.000  0.00  0.00    +0.124 A 
ATOM      9  C   UNL     1      -4.989  -3.963   0.000  0.00  0.00    +0.091 A 
ATOM     10  C   UNL     1      -6.288  -3.213   0.000  0.00  0.00    +0.129 A 
ATOM     11  C   UNL     1      -8.325   0.121   0.000  0.00  0.00    +0.241 C 
ATOM     12  O   UNL     1      -9.816   0.278   0.000  0.00  0.00    -0.491 OA
ATOM     13  C   UNL     1     -10.698  -0.936   0.000  0.00  0.00    +0.131 A 
ATOM     14  C   UNL     1     -12.190  -0.779   0.000  0.00  0.00    +0.091 A 
ATOM     15  C   UNL     1     -13.072  -1.993   0.000  0.00  0.00    +0.120 A 
ATOM     18  C   UNL     1     -12.461  -3.363   0.000  0.00  0.00    +0.046 A 
ATOM     19  C   UNL     1     -10.970  -3.520   0.000  0.00  0.00    +0.014 A 
ATOM     20  C   UNL     1     -10.088  -2.306   0.000  0.00  0.00    +0.035 A 
ATOM     21  O   UNL     1      -7.715  -3.677   0.000  0.00  0.00    -0.483 OA
ENDROOT
BRANCH   6   7
ATOM      7  O   UNL     1      -2.391  -3.963   0.000  0.00  0.00    -0.495 OA
ATOM      8  C   UNL     1      -1.092  -3.213   0.000  0.00  0.00    +0.277 C 
ENDBRANCH   6   7
BRANCH  15  16
ATOM     16  O   UNL     1     -14.563  -1.836   0.000  0.00  0.00    -0.507 OA
ATOM     17  H   UNL     1     -14.945  -0.980   0.000  0.00  0.00    +0.292 HD
ENDBRANCH  15  16
TORSDOF 2