REMARK  Name = NSC 343256
REMARK  6 active torsions:
REMARK  status: ('A' for Active; 'I' for Inactive)
REMARK    1  A    between atoms: O_1  and  C_2
REMARK    2  A    between atoms: O_1  and  C_3
REMARK    3  A    between atoms: C_4  and  O_5
REMARK    4  A    between atoms: C_10  and  O_11
REMARK    5  A    between atoms: C_17  and  C_18
REMARK    6  A    between atoms: C_32  and  C_33
REMARK                            x       y       z     vdW  Elec       q    Type
REMARK                         _______ _______ _______ _____ _____    ______ ____
ROOT
ATOM      3  C   UNL     1      10.805  -9.155   0.000  0.00  0.00    +0.184 C 
ATOM      4  C   UNL     1      12.225  -8.670   0.000  0.00  0.00    +0.130 C 
ATOM      7  C   UNL     1      12.202  -7.170   0.000  0.00  0.00    +0.042 C 
ATOM      8  C   UNL     1      13.441  -6.325   0.000  0.00  0.00    +0.165 C 
ATOM      9  O   UNL     1      14.740  -7.074   0.000  0.00  0.00    -0.292 OA
ATOM     10  C   UNL     1      13.552  -4.829   0.000  0.00  0.00    +0.110 C 
ATOM     11  C   UNL     1      12.452  -3.809   0.000  0.00  0.00    +0.122 C 
ATOM     14  C   UNL     1      10.969  -4.033   0.000  0.00  0.00    +0.036 C 
ATOM     15  C   UNL     1      10.219  -2.734   0.000  0.00  0.00    +0.029 C 
ATOM     16  C   UNL     1       8.719  -2.735   0.000  0.00  0.00    -0.031 C 
ATOM     17  C   UNL     1       7.968  -1.436   0.000  0.00  0.00    -0.029 C 
ATOM     18  C   UNL     1       6.468  -1.437   0.000  0.00  0.00    +0.054 C 
ATOM     19  C   UNL     1       5.718  -0.138   0.000  0.00  0.00    +0.107 C 
ATOM     26  N   UNL     1       4.218  -0.138   0.000  0.00  0.00    -0.305 N 
ATOM     27  H   UNL     1       3.467   1.161   0.000  0.00  0.00    +0.150 HD
ATOM     28  C   UNL     1       3.468  -1.438   0.000  0.00  0.00    +0.237 C 
ATOM     29  O   UNL     1       1.968  -1.438   0.000  0.00  0.00    -0.271 OA
ATOM     30  C   UNL     1       4.219  -2.736   0.000  0.00  0.00    +0.067 C 
ATOM     31  C   UNL     1       5.719  -2.736   0.000  0.00  0.00    +0.005 C 
ATOM     32  C   UNL     1       6.469  -4.035   0.000  0.00  0.00    +0.000 C 
ATOM     33  C   UNL     1       7.969  -4.034   0.000  0.00  0.00    +0.003 C 
ATOM     34  C   UNL     1       8.720  -5.333   0.000  0.00  0.00    -0.054 C 
ATOM     35  C   UNL     1       7.970  -6.632   0.000  0.00  0.00    +0.043 C 
ATOM     36  C   UNL     1       9.506  -6.380   0.000  0.00  0.00    -0.015 C 
ATOM     37  C   UNL     1      10.768  -6.728   0.000  0.00  0.00    +0.051 C 
ATOM     38  C   UNL     1       9.905  -7.955   0.000  0.00  0.00    +0.052 C 
ENDROOT
BRANCH  19  20
ATOM     20  C   UNL     1       6.467   1.162   0.000  0.00  0.00    -0.027 A 
ATOM     21  C   UNL     1       7.967   1.162   0.000  0.00  0.00    +0.005 A 
ATOM     22  C   UNL     1       8.717   2.461   0.000  0.00  0.00    +0.000 A 
ATOM     23  C   UNL     1       7.966   3.760   0.000  0.00  0.00    +0.000 A 
ATOM     24  C   UNL     1       6.466   3.760   0.000  0.00  0.00    +0.000 A 
ATOM     25  C   UNL     1       5.717   2.460   0.000  0.00  0.00    +0.005 A 
ENDBRANCH  19  20
BRANCH   3   1
ATOM      1  O   UNL     1      10.364 -10.589   0.000  0.00  0.00    -0.372 OA
ATOM      2  C   UNL     1       8.901 -10.923   0.000  0.00  0.00    +0.194 C 
ENDBRANCH   3   1
BRANCH   4   5
ATOM      5  O   UNL     1      13.451  -9.533   0.000  0.00  0.00    -0.508 OA
ATOM      6  H   UNL     1      13.368 -10.466   0.000  0.00  0.00    +0.292 HD
ENDBRANCH   4   5
BRANCH  11  12
ATOM     12  O   UNL     1      12.894  -2.375   0.000  0.00  0.00    -0.391 OA
ATOM     13  H   UNL     1      13.840  -2.159   0.000  0.00  0.00    +0.210 HD
ENDBRANCH  11  12
TORSDOF 4