REMARK  Name = NSC 335989
REMARK  9 active torsions:
REMARK  status: ('A' for Active; 'I' for Inactive)
REMARK    1  A    between atoms: C_3  and  O_4
REMARK    2  A    between atoms: O_4  and  C_5
REMARK    3  A    between atoms: C_10  and  N_11
REMARK    4  A    between atoms: C_12  and  C_13
REMARK    5  A    between atoms: C_22  and  O_23
REMARK    6  A    between atoms: O_23  and  C_24
REMARK    7  A    between atoms: C_25  and  O_26
REMARK    8  A    between atoms: C_27  and  O_28
REMARK    9  A    between atoms: O_28  and  C_29
REMARK                            x       y       z     vdW  Elec       q    Type
REMARK                         _______ _______ _______ _____ _____    ______ ____
ROOT
ATOM      1  O   UNL     1      -4.127  -7.987   0.000  0.00  0.00    -0.284 OA
ATOM      2  C   UNL     1      -5.478  -7.336   0.000  0.00  0.00    +0.221 A 
ATOM      3  C   UNL     1      -6.651  -8.271   0.000  0.00  0.00    +0.167 A 
ATOM      6  C   UNL     1      -8.113  -7.937   0.000  0.00  0.00    +0.050 A 
ATOM      7  C   UNL     1      -8.764  -6.586   0.000  0.00  0.00    +0.012 A 
ATOM      8  C   UNL     1      -8.113  -5.234   0.000  0.00  0.00    -0.009 A 
ATOM      9  C   UNL     1      -6.651  -4.901   0.000  0.00  0.00    -0.016 A 
ATOM     10  C   UNL     1      -6.000  -3.549   0.000  0.00  0.00    +0.104 C 
ATOM     19  C   UNL     1      -6.651  -2.198   0.000  0.00  0.00    +0.032 C 
ATOM     20  C   UNL     1      -8.113  -1.864   0.000  0.00  0.00    +0.038 C 
ATOM     21  C   UNL     1      -9.286  -2.799   0.000  0.00  0.00    -0.032 A 
ATOM     22  C   UNL     1     -10.585  -2.049   0.000  0.00  0.00    +0.054 A 
ATOM     23  C   UNL     1     -11.884  -2.799   0.000  0.00  0.00    +0.165 A 
ATOM     26  C   UNL     1     -11.884  -4.299   0.000  0.00  0.00    +0.202 A 
ATOM     29  C   UNL     1     -10.585  -5.049   0.000  0.00  0.00    +0.173 A 
ATOM     32  C   UNL     1      -9.286  -4.299   0.000  0.00  0.00    +0.031 A 
ATOM     33  C   UNL     1      -5.478  -5.836   0.000  0.00  0.00    +0.060 A 
ENDROOT
BRANCH  10  11
ATOM     11  N   UNL     1      -4.500  -3.549   0.000  0.00  0.00    -0.301 N 
ATOM     12  H   UNL     1      -4.008  -4.402   0.000  0.00  0.00    +0.150 HD
ATOM     13  C   UNL     1      -3.750  -2.250   0.000  0.00  0.00    +0.318 C 
ATOM     18  O   UNL     1      -4.500  -0.951   0.000  0.00  0.00    -0.266 OA
BRANCH  13  14
ATOM     14  C   UNL     1      -2.250  -2.250   0.000  0.00  0.00    +0.469 C 
ATOM     15  F   UNL     1      -0.750  -2.250   0.000  0.00  0.00    -0.162 F 
ATOM     16  F   UNL     1      -2.250  -0.750   0.000  0.00  0.00    -0.162 F 
ATOM     17  F   UNL     1      -2.250  -3.750   0.000  0.00  0.00    -0.162 F 
ENDBRANCH  13  14
ENDBRANCH  10  11
BRANCH   3   4
ATOM      4  O   UNL     1      -6.317  -9.733   0.000  0.00  0.00    -0.491 OA
ATOM      5  C   UNL     1      -7.417 -10.754   0.000  0.00  0.00    +0.277 C 
ENDBRANCH   3   4
BRANCH  23  24
ATOM     24  O   UNL     1     -13.183  -2.049   0.000  0.00  0.00    -0.491 OA
ATOM     25  C   UNL     1     -14.482  -2.799   0.000  0.00  0.00    +0.277 C 
ENDBRANCH  23  24
BRANCH  26  27
ATOM     27  O   UNL     1     -13.183  -5.049   0.000  0.00  0.00    -0.501 OA
ATOM     28  H   UNL     1     -13.995  -4.580   0.000  0.00  0.00    +0.292 HD
ENDBRANCH  26  27
BRANCH  29  30
ATOM     30  O   UNL     1     -10.585  -6.549   0.000  0.00  0.00    -0.491 OA
ATOM     31  C   UNL     1     -11.884  -7.299   0.000  0.00  0.00    +0.277 C 
ENDBRANCH  29  30
TORSDOF 6