REMARK  Name = NSC 307981
REMARK  11 active torsions:
REMARK  status: ('A' for Active; 'I' for Inactive)
REMARK    1  A    between atoms: C_1  and  C_2
REMARK    2  A    between atoms: C_1  and  C_3
REMARK    3  A    between atoms: C_7  and  O_29
REMARK    4  A    between atoms: C_9  and  O_10
REMARK    5  A    between atoms: C_11  and  C_12
REMARK    6  A    between atoms: C_15  and  O_16
REMARK    7  A    between atoms: C_23  and  C_24
REMARK    8  A    between atoms: C_24  and  C_25
REMARK    9  A    between atoms: C_26  and  C_27
REMARK   10  A    between atoms: C_26  and  C_28
REMARK   11  A    between atoms: O_29  and  C_30
REMARK                            x       y       z     vdW  Elec       q    Type
REMARK                         _______ _______ _______ _____ _____    ______ ____
ROOT
ATOM      1  C   UNL     1       2.669   0.825   0.000  0.00  0.00    +0.124 C 
ATOM      2  C   UNL     1       2.156   2.235   0.000  0.00  0.00    +0.060 C 
ATOM      3  C   UNL     1       1.192   0.565   0.000  0.00  0.00    +0.060 C 
ATOM      4  C   UNL     1       2.669  -0.675   0.000  0.00  0.00    +0.020 C 
ATOM      5  C   UNL     1       3.968  -1.425   0.000  0.00  0.00    +0.015 C 
ATOM      6  C   UNL     1       5.267  -0.675   0.000  0.00  0.00    +0.059 A 
ATOM      7  C   UNL     1       6.566  -1.425   0.000  0.00  0.00    +0.145 A 
ATOM      8  C   UNL     1       7.865  -0.675   0.000  0.00  0.00    +0.102 A 
ATOM      9  C   UNL     1       9.164  -1.425   0.000  0.00  0.00    +0.146 A 
ATOM     12  C   UNL     1      10.463  -0.675   0.000  0.00  0.00    +0.109 A 
ATOM     21  C   UNL     1      10.463   0.825   0.000  0.00  0.00    +0.349 A 
ATOM     22  O   UNL     1      11.762   1.575   0.000  0.00  0.00    -0.244 OA
ATOM     23  O   UNL     1       9.164   1.575   0.000  0.00  0.00    -0.421 OA
ATOM     24  C   UNL     1       7.865   0.825   0.000  0.00  0.00    +0.153 A 
ATOM     25  C   UNL     1       6.566   1.575   0.000  0.00  0.00    +0.042 A 
ATOM     33  C   UNL     1       5.267   0.825   0.000  0.00  0.00    +0.139 A 
ATOM     34  O   UNL     1       3.968   1.575   0.000  0.00  0.00    -0.481 OA
ENDROOT
BRANCH  12  13
ATOM     13  C   UNL     1      11.762  -1.425   0.000  0.00  0.00    -0.007 A 
ATOM     14  C   UNL     1      11.762  -2.925   0.000  0.00  0.00    +0.012 A 
ATOM     15  C   UNL     1      13.062  -3.675   0.000  0.00  0.00    +0.046 A 
ATOM     16  C   UNL     1      14.361  -2.925   0.000  0.00  0.00    +0.117 A 
ATOM     19  C   UNL     1      14.361  -1.425   0.000  0.00  0.00    +0.046 A 
ATOM     20  C   UNL     1      13.062  -0.675   0.000  0.00  0.00    +0.012 A 
BRANCH  16  17
ATOM     17  O   UNL     1      15.660  -3.675   0.000  0.00  0.00    -0.507 OA
ATOM     18  H   UNL     1      15.660  -4.612   0.000  0.00  0.00    +0.292 HD
ENDBRANCH  16  17
ENDBRANCH  12  13
BRANCH   9  10
ATOM     10  O   UNL     1       9.164  -2.925   0.000  0.00  0.00    -0.505 OA
ATOM     11  H   UNL     1       8.353  -3.394   0.000  0.00  0.00    +0.292 HD
ENDBRANCH   9  10
BRANCH   7  31
ATOM     31  O   UNL     1       6.566  -2.925   0.000  0.00  0.00    -0.494 OA
ATOM     32  C   UNL     1       7.865  -3.675   0.000  0.00  0.00    +0.277 C 
ENDBRANCH   7  31
BRANCH  25  26
ATOM     26  C   UNL     1       6.566   3.075   0.000  0.00  0.00    +0.069 C 
BRANCH  26  27
ATOM     27  C   UNL     1       5.157   3.588   0.000  0.00  0.00    -0.023 C 
ATOM     28  C   UNL     1       4.896   5.065   0.000  0.00  0.00    -0.079 C 
ATOM     29  C   UNL     1       6.045   6.029   0.000  0.00  0.00    +0.038 C 
ATOM     30  C   UNL     1       3.487   5.578   0.000  0.00  0.00    +0.038 C 
ENDBRANCH  26  27
ENDBRANCH  25  26
TORSDOF 6