REMARK  Name = NSC 34202
REMARK  15 active torsions:
REMARK  status: ('A' for Active; 'I' for Inactive)
REMARK    1  A    between atoms: C_4  and  C_5
REMARK    2  A    between atoms: C_7  and  C_8
REMARK    3  A    between atoms: C_7  and  C_9
REMARK    4  A    between atoms: C_10  and  O_11
REMARK    5  A    between atoms: O_11  and  C_12
REMARK    6  A    between atoms: C_12  and  C_13
REMARK    7  A    between atoms: C_22  and  C_23
REMARK    8  A    between atoms: C_26  and  C_28
REMARK    9  A    between atoms: C_28  and  C_29
REMARK   10  A    between atoms: C_28  and  C_35
REMARK   11  A    between atoms: C_29  and  C_30
REMARK   12  A    between atoms: C_30  and  C_31
REMARK   13  A    between atoms: C_31  and  O_32
REMARK   14  A    between atoms: O_32  and  C_33
REMARK   15  A    between atoms: C_37  and  C_38
REMARK                            x       y       z     vdW  Elec       q    Type
REMARK                         _______ _______ _______ _____ _____    ______ ____
ROOT
ATOM      1  O   UNL     1      -2.796 -10.638   0.000  0.00  0.00    -0.297 OA
ATOM      2  C   UNL     1      -1.304 -10.481   0.000  0.00  0.00    +0.138 C 
ATOM      3  C   UNL     1      -0.423 -11.694   0.000  0.00  0.00    +0.072 C 
ATOM      4  C   UNL     1      -1.033 -13.065   0.000  0.00  0.00    -0.018 C 
ATOM      5  C   UNL     1      -1.915 -11.851   0.000  0.00  0.00    +0.012 C 
ATOM      6  C   UNL     1      -0.151 -14.278   0.000  0.00  0.00    +0.012 C 
ATOM      7  C   UNL     1      -0.761 -15.649   0.000  0.00  0.00    +0.006 C 
ATOM      8  C   UNL     1       0.694 -16.011   0.000  0.00  0.00    +0.015 C 
ATOM      9  C   UNL     1      -0.866 -17.145   0.000  0.00  0.00    +0.015 C 
ATOM     10  C   UNL     1      -2.253 -15.805   0.000  0.00  0.00    +0.182 C 
ATOM     15  C   UNL     1      -3.135 -14.592   0.000  0.00  0.00    +0.046 C 
ATOM     16  C   UNL     1       1.341 -14.121   0.000  0.00  0.00    +0.079 C 
ATOM     17  C   UNL     1       1.951 -12.751   0.000  0.00  0.00    +0.138 C 
ATOM     18  O   UNL     1       3.442 -12.594   0.000  0.00  0.00    -0.297 OA
ATOM     19  C   UNL     1      -2.525 -13.222   0.000  0.00  0.00    +0.011 C 
ATOM     20  C   UNL     1       1.069 -11.538   0.000  0.00  0.00    +0.072 C 
ATOM     21  C   UNL     1       1.679 -10.167   0.000  0.00  0.00    -0.016 C 
ATOM     22  C   UNL     1       2.683 -11.282   0.000  0.00  0.00    +0.012 C 
ATOM     23  C   UNL     1       3.106  -9.704   0.000  0.00  0.00    +0.008 C 
ATOM     24  C   UNL     1       3.106  -8.204   0.000  0.00  0.00    +0.005 C 
ATOM     25  C   UNL     1       1.679  -7.740   0.000  0.00  0.00    -0.001 C 
ATOM     34  C   UNL     1       0.797  -8.954   0.000  0.00  0.00    -0.016 C 
ATOM     35  C   UNL     1       0.048  -7.655   0.000  0.00  0.00    +0.012 C 
ATOM     36  C   UNL     1      -0.694  -9.111   0.000  0.00  0.00    +0.082 C 
ENDROOT
BRANCH  25  26
ATOM     26  C   UNL     1      -0.217  -6.149   0.000  0.00  0.00    -0.010 C 
ATOM     33  C   UNL     1      -1.181  -7.298   0.000  0.00  0.00    +0.008 C 
BRANCH  26  27
ATOM     27  C   UNL     1       0.044  -4.672   0.000  0.00  0.00    +0.014 C 
BRANCH  27  28
ATOM     28  C   UNL     1       1.453  -4.159   0.000  0.00  0.00    +0.121 C 
BRANCH  28  29
ATOM     29  C   UNL     1       1.714  -2.682   0.000  0.00  0.00    +0.307 C 
ATOM     32  O   UNL     1       3.123  -2.169   0.000  0.00  0.00    -0.251 OA
BRANCH  29  30
ATOM     30  O   UNL     1       0.565  -1.718   0.000  0.00  0.00    -0.468 OA
ATOM     31  C   UNL     1       0.825  -0.240   0.000  0.00  0.00    +0.280 C 
ENDBRANCH  29  30
ENDBRANCH  28  29
ENDBRANCH  27  28
ENDBRANCH  26  27
ENDBRANCH  25  26
BRANCH  10  11
ATOM     11  O   UNL     1      -2.863 -17.176   0.000  0.00  0.00    -0.461 OA
BRANCH  11  12
ATOM     12  C   UNL     1      -4.355 -17.333   0.000  0.00  0.00    +0.304 C 
ATOM     13  C   UNL     1      -5.237 -16.119   0.000  0.00  0.00    +0.136 C 
ATOM     14  O   UNL     1      -4.965 -18.703   0.000  0.00  0.00    -0.251 OA
ENDBRANCH  11  12
ENDBRANCH  10  11
TORSDOF 7