REMARK  Name = NSC 35611#1
REMARK  22 active torsions:
REMARK  status: ('A' for Active; 'I' for Inactive)
REMARK    1  A    between atoms: C_2  and  O_30
REMARK    2  A    between atoms: C_3  and  O_19
REMARK    3  A    between atoms: C_4  and  O_7
REMARK    4  A    between atoms: C_5  and  O_6
REMARK    5  A    between atoms: O_7  and  C_8
REMARK    6  A    between atoms: C_9  and  O_10
REMARK    7  A    between atoms: C_11  and  O_12
REMARK    8  A    between atoms: C_13  and  O_14
REMARK    9  A    between atoms: C_15  and  C_16
REMARK   10  A    between atoms: C_16  and  O_17
REMARK   11  A    between atoms: O_19  and  C_20
REMARK   12  A    between atoms: C_21  and  O_22
REMARK   13  A    between atoms: C_23  and  O_24
REMARK   14  A    between atoms: C_25  and  O_26
REMARK   15  A    between atoms: C_27  and  C_28
REMARK   16  A    between atoms: O_30  and  C_31
REMARK   17  A    between atoms: C_34  and  C_35
REMARK   18  A    between atoms: C_39  and  C_40
REMARK   19  A    between atoms: C_42  and  C_43
REMARK   20  A    between atoms: C_47  and  C_48
REMARK   21  A    between atoms: C_59  and  C_60
REMARK   22  A    between atoms: C_60  and  O_61
REMARK                            x       y       z     vdW  Elec       q    Type
REMARK                         _______ _______ _______ _____ _____    ______ ____
ROOT
ATOM      1  O   UNL     1       5.571  -5.149   0.000  0.00  0.00    -0.341 OA
ATOM      2  C   UNL     1       6.870  -5.899   0.000  0.00  0.00    +0.282 C 
ATOM      3  C   UNL     1       8.169  -5.149   0.000  0.00  0.00    +0.208 C 
ATOM      4  C   UNL     1       8.169  -3.650   0.000  0.00  0.00    +0.186 C 
ATOM      5  C   UNL     1       6.870  -2.900   0.000  0.00  0.00    +0.177 C 
ATOM     67  C   UNL     1       5.571  -3.650   0.000  0.00  0.00    +0.178 C 
ENDROOT
BRANCH   5   6
ATOM      6  O   UNL     1       6.870  -1.400   0.000  0.00  0.00    -0.386 OA
ATOM      7  H   UNL     1       7.710  -0.914   0.000  0.00  0.00    +0.210 HD
ENDBRANCH   5   6
BRANCH   4   8
ATOM      8  O   UNL     1       9.468  -2.900   0.000  0.00  0.00    -0.340 OA
BRANCH   8   9
ATOM      9  C   UNL     1       9.468  -1.400   0.000  0.00  0.00    +0.282 C 
ATOM     10  C   UNL     1      10.767  -0.649   0.000  0.00  0.00    +0.201 C 
ATOM     13  C   UNL     1      10.767   0.851   0.000  0.00  0.00    +0.179 C 
ATOM     16  C   UNL     1       9.468   1.601   0.000  0.00  0.00    +0.177 C 
ATOM     19  C   UNL     1       8.169   0.851   0.000  0.00  0.00    +0.178 C 
ATOM     23  O   UNL     1       8.169  -0.649   0.000  0.00  0.00    -0.341 OA
BRANCH  10  11
ATOM     11  O   UNL     1      12.066  -1.400   0.000  0.00  0.00    -0.384 OA
ATOM     12  H   UNL     1      12.066  -2.369   0.000  0.00  0.00    +0.210 HD
ENDBRANCH  10  11
BRANCH  13  14
ATOM     14  O   UNL     1      12.066   1.601   0.000  0.00  0.00    -0.386 OA
ATOM     15  H   UNL     1      12.906   1.116   0.000  0.00  0.00    +0.210 HD
ENDBRANCH  13  14
BRANCH  16  17
ATOM     17  O   UNL     1       9.468   3.100   0.000  0.00  0.00    -0.386 OA
ATOM     18  H   UNL     1      10.308   3.585   0.000  0.00  0.00    +0.210 HD
ENDBRANCH  16  17
BRANCH  19  20
ATOM     20  C   UNL     1       6.870   1.601   0.000  0.00  0.00    +0.190 C 
BRANCH  20  21
ATOM     21  O   UNL     1       6.870   3.100   0.000  0.00  0.00    -0.392 OA
ATOM     22  H   UNL     1       7.710   3.585   0.000  0.00  0.00    +0.210 HD
ENDBRANCH  20  21
ENDBRANCH  19  20
ENDBRANCH   8   9
ENDBRANCH   4   8
BRANCH   3  24
ATOM     24  O   UNL     1       9.468  -5.899   0.000  0.00  0.00    -0.338 OA
BRANCH  24  25
ATOM     25  C   UNL     1       9.468  -7.399   0.000  0.00  0.00    +0.282 C 
ATOM     26  C   UNL     1      10.767  -8.149   0.000  0.00  0.00    +0.201 C 
ATOM     29  C   UNL     1      10.767  -9.649   0.000  0.00  0.00    +0.179 C 
ATOM     32  C   UNL     1       9.468 -10.400   0.000  0.00  0.00    +0.174 C 
ATOM     35  C   UNL     1       8.169  -9.649   0.000  0.00  0.00    +0.149 C 
ATOM     36  C   UNL     1       6.870 -10.400   0.000  0.00  0.00    +0.041 C 
ATOM     37  O   UNL     1       8.169  -8.149   0.000  0.00  0.00    -0.343 OA
BRANCH  26  27
ATOM     27  O   UNL     1      12.066  -7.399   0.000  0.00  0.00    -0.384 OA
ATOM     28  H   UNL     1      12.906  -7.885   0.000  0.00  0.00    +0.210 HD
ENDBRANCH  26  27
BRANCH  29  30
ATOM     30  O   UNL     1      12.066 -10.400   0.000  0.00  0.00    -0.386 OA
ATOM     31  H   UNL     1      12.066 -11.369   0.000  0.00  0.00    +0.210 HD
ENDBRANCH  29  30
BRANCH  32  33
ATOM     33  O   UNL     1       9.468 -11.900   0.000  0.00  0.00    -0.387 OA
ATOM     34  H   UNL     1       8.628 -12.384   0.000  0.00  0.00    +0.210 HD
ENDBRANCH  32  33
ENDBRANCH  24  25
ENDBRANCH   3  24
BRANCH   2  38
ATOM     38  O   UNL     1       6.870  -7.399   0.000  0.00  0.00    -0.345 OA
BRANCH  38  39
ATOM     39  C   UNL     1       5.571  -8.149   0.000  0.00  0.00    +0.125 C 
ATOM     40  C   UNL     1       5.571  -9.649   0.000  0.00  0.00    +0.033 C 
ATOM     41  C   UNL     1       4.272 -10.400   0.000  0.00  0.00    +0.014 C 
ATOM     42  C   UNL     1       2.973  -9.649   0.000  0.00  0.00    -0.008 C 
ATOM     43  C   UNL     1       2.973 -11.150   0.000  0.00  0.00    +0.016 C 
ATOM     44  C   UNL     1       1.674 -10.400   0.000  0.00  0.00    +0.003 C 
ATOM     45  C   UNL     1       1.674 -11.900   0.000  0.00  0.00    +0.005 C 
ATOM     46  C   UNL     1       0.375 -12.650   0.000  0.00  0.00    +0.007 C 
ATOM     47  C   UNL     1      -0.924 -11.900   0.000  0.00  0.00    -0.024 C 
ATOM     48  C   UNL     1      -1.081 -13.391   0.000  0.00  0.00    +0.012 C 
ATOM     49  C   UNL     1      -2.351 -12.363   0.000  0.00  0.00    +0.017 C 
ATOM     50  C   UNL     1      -3.232 -13.577   0.000  0.00  0.00    +0.008 C 
ATOM     51  C   UNL     1      -2.769 -15.003   0.000  0.00  0.00    +0.009 C 
ATOM     52  C   UNL     1      -4.659 -13.113   0.000  0.00  0.00    +0.060 C 
ATOM     53  C   UNL     1      -5.958 -13.863   0.000  0.00  0.00    +0.019 C 
ATOM     54  C   UNL     1      -7.257 -13.113   0.000  0.00  0.00    +0.006 C 
ATOM     55  C   UNL     1      -7.257 -11.613   0.000  0.00  0.00    +0.000 C 
ATOM     56  C   UNL     1      -8.556 -10.863   0.000  0.00  0.00    +0.009 C 
ATOM     57  C   UNL     1      -5.958 -10.863   0.000  0.00  0.00    +0.088 C 
ATOM     58  N   UNL     1      -4.659 -11.613   0.000  0.00  0.00    -0.296 NA
ATOM     59  C   UNL     1      -3.232 -11.150   0.000  0.00  0.00    +0.061 C 
ATOM     60  C   UNL     1      -2.351  -9.936   0.000  0.00  0.00    +0.023 C 
ATOM     61  C   UNL     1      -0.924 -10.400   0.000  0.00  0.00    +0.000 C 
ATOM     62  C   UNL     1       0.375  -9.649   0.000  0.00  0.00    +0.000 C 
ATOM     63  C   UNL     1       0.375  -8.149   0.000  0.00  0.00    +0.031 C 
ATOM     64  C   UNL     1       1.674  -7.399   0.000  0.00  0.00    -0.027 C 
ATOM     65  C   UNL     1       2.973  -8.149   0.000  0.00  0.00    -0.065 C 
ATOM     66  C   UNL     1       4.272  -7.399   0.000  0.00  0.00    +0.062 C 
ENDBRANCH  38  39
ENDBRANCH   2  38
BRANCH  67  68
ATOM     68  C   UNL     1       4.272  -2.900   0.000  0.00  0.00    +0.190 C 
BRANCH  68  69
ATOM     69  O   UNL     1       2.973  -3.650   0.000  0.00  0.00    -0.392 OA
ATOM     70  H   UNL     1       2.133  -3.165   0.000  0.00  0.00    +0.210 HD
ENDBRANCH  68  69
ENDBRANCH  67  68
TORSDOF 17