REMARK  Name = NSC 35550#1
REMARK  10 active torsions:
REMARK  status: ('A' for Active; 'I' for Inactive)
REMARK    1  A    between atoms: C_6  and  O_7
REMARK    2  A    between atoms: O_7  and  C_8
REMARK    3  A    between atoms: C_9  and  O_10
REMARK    4  A    between atoms: O_10  and  C_11
REMARK    5  A    between atoms: C_14  and  C_15
REMARK    6  A    between atoms: C_15  and  C_16
REMARK    7  A    between atoms: C_19  and  O_20
REMARK    8  A    between atoms: O_20  and  C_21
REMARK    9  A    between atoms: C_22  and  O_23
REMARK   10  A    between atoms: O_23  and  C_24
REMARK                            x       y       z     vdW  Elec       q    Type
REMARK                         _______ _______ _______ _____ _____    ______ ____
ROOT
ATOM      1  N   UNL     1      -4.172  -7.774   0.000  0.00  0.00    -0.287 NA
ATOM      2  C   UNL     1      -4.172  -9.274   0.000  0.00  0.00    +0.146 C 
ATOM      3  C   UNL     1      -5.471 -10.025   0.000  0.00  0.00    +0.059 C 
ATOM      4  C   UNL     1      -6.770  -9.274   0.000  0.00  0.00    -0.033 A 
ATOM      5  C   UNL     1      -8.069 -10.025   0.000  0.00  0.00    +0.053 A 
ATOM      6  C   UNL     1      -9.368  -9.274   0.000  0.00  0.00    +0.162 A 
ATOM      9  C   UNL     1      -9.368  -7.774   0.000  0.00  0.00    +0.162 A 
ATOM     12  C   UNL     1      -8.069  -7.024   0.000  0.00  0.00    +0.059 A 
ATOM     13  C   UNL     1      -6.770  -7.774   0.000  0.00  0.00    +0.003 A 
ATOM     14  C   UNL     1      -5.471  -7.024   0.000  0.00  0.00    +0.048 C 
ENDROOT
BRANCH   6   7
ATOM      7  O   UNL     1     -10.667 -10.025   0.000  0.00  0.00    -0.491 OA
ATOM      8  C   UNL     1     -11.966  -9.274   0.000  0.00  0.00    +0.277 C 
ENDBRANCH   6   7
BRANCH   9  10
ATOM     10  O   UNL     1     -10.667  -7.024   0.000  0.00  0.00    -0.491 OA
ATOM     11  C   UNL     1     -11.966  -7.774   0.000  0.00  0.00    +0.277 C 
ENDBRANCH   9  10
BRANCH  14  15
ATOM     15  C   UNL     1      -5.471  -5.524   0.000  0.00  0.00    +0.090 C 
BRANCH  15  16
ATOM     16  C   UNL     1      -4.172  -4.774   0.000  0.00  0.00    -0.038 A 
ATOM     17  C   UNL     1      -4.172  -3.275   0.000  0.00  0.00    +0.008 A 
ATOM     18  C   UNL     1      -2.873  -2.525   0.000  0.00  0.00    +0.049 A 
ATOM     19  C   UNL     1      -1.574  -3.275   0.000  0.00  0.00    +0.161 A 
ATOM     22  C   UNL     1      -1.574  -4.774   0.000  0.00  0.00    +0.162 A 
ATOM     25  C   UNL     1      -2.873  -5.524   0.000  0.00  0.00    +0.053 A 
BRANCH  19  20
ATOM     20  O   UNL     1      -0.275  -2.525   0.000  0.00  0.00    -0.491 OA
ATOM     21  C   UNL     1      -0.275  -1.025   0.000  0.00  0.00    +0.277 C 
ENDBRANCH  19  20
BRANCH  22  23
ATOM     23  O   UNL     1      -0.275  -5.524   0.000  0.00  0.00    -0.491 OA
ATOM     24  C   UNL     1      -0.275  -7.024   0.000  0.00  0.00    +0.277 C 
ENDBRANCH  22  23
ENDBRANCH  15  16
ENDBRANCH  14  15
TORSDOF 6