REMARK  Name = NSC 35676
REMARK  4 active torsions:
REMARK  status: ('A' for Active; 'I' for Inactive)
REMARK    1  A    between atoms: C_3  and  O_4
REMARK    2  A    between atoms: C_10  and  O_11
REMARK    3  A    between atoms: C_12  and  O_13
REMARK    4  A    between atoms: C_14  and  O_15
REMARK                            x       y       z     vdW  Elec       q    Type
REMARK                         _______ _______ _______ _____ _____    ______ ____
ROOT
ATOM      1  O   UNL     1      -6.716   0.775   0.000  0.00  0.00    -0.283 OA
ATOM      2  C   UNL     1      -7.049  -0.688   0.000  0.00  0.00    +0.231 A 
ATOM      3  C   UNL     1      -8.512  -1.021   0.000  0.00  0.00    +0.164 A 
ATOM      6  C   UNL     1      -9.163  -2.373   0.000  0.00  0.00    +0.049 A 
ATOM      7  C   UNL     1      -8.512  -3.724   0.000  0.00  0.00    +0.004 A 
ATOM      8  C   UNL     1      -7.049  -4.058   0.000  0.00  0.00    +0.009 A 
ATOM      9  C   UNL     1      -5.877  -3.123   0.000  0.00  0.00    -0.007 A 
ATOM     10  C   UNL     1      -4.578  -3.873   0.000  0.00  0.00    +0.058 A 
ATOM     11  C   UNL     1      -3.279  -3.123   0.000  0.00  0.00    +0.163 A 
ATOM     14  C   UNL     1      -3.279  -1.623   0.000  0.00  0.00    +0.201 A 
ATOM     17  C   UNL     1      -4.578  -0.873   0.000  0.00  0.00    +0.174 A 
ATOM     20  C   UNL     1      -5.877  -1.623   0.000  0.00  0.00    +0.078 A 
ENDROOT
BRANCH   3   4
ATOM      4  O   UNL     1      -9.447   0.151   0.000  0.00  0.00    -0.503 OA
ATOM      5  H   UNL     1      -9.105   1.024   0.000  0.00  0.00    +0.292 HD
ENDBRANCH   3   4
BRANCH  11  12
ATOM     12  O   UNL     1      -1.980  -3.873   0.000  0.00  0.00    -0.503 OA
ATOM     13  H   UNL     1      -1.980  -4.810   0.000  0.00  0.00    +0.292 HD
ENDBRANCH  11  12
BRANCH  14  15
ATOM     15  O   UNL     1      -1.980  -0.873   0.000  0.00  0.00    -0.501 OA
ATOM     16  H   UNL     1      -1.168  -1.341   0.000  0.00  0.00    +0.292 HD
ENDBRANCH  14  15
BRANCH  17  18
ATOM     18  O   UNL     1      -4.578   0.627   0.000  0.00  0.00    -0.503 OA
ATOM     19  H   UNL     1      -3.766   1.096   0.000  0.00  0.00    +0.292 HD
ENDBRANCH  17  18
TORSDOF 4