REMARK  Name = NSC 327993
REMARK  8 active torsions:
REMARK  status: ('A' for Active; 'I' for Inactive)
REMARK    1  A    between atoms: C_1  and  C_2
REMARK    2  A    between atoms: C_10  and  C_23
REMARK    3  A    between atoms: C_14  and  C_15
REMARK    4  A    between atoms: C_16  and  O_17
REMARK    5  A    between atoms: C_23  and  O_24
REMARK    6  A    between atoms: C_23  and  C_26
REMARK    7  A    between atoms: C_34  and  C_39
REMARK    8  A    between atoms: C_35  and  O_36
REMARK                            x       y       z     vdW  Elec       q    Type
REMARK                         _______ _______ _______ _____ _____    ______ ____
ROOT
ATOM      1  C   UNL     1       2.818  -0.526   0.000  0.00  0.00    +0.019 C 
ATOM      2  C   UNL     1       2.175  -1.293   0.000  0.00  0.00    +0.050 C 
ATOM      3  C   UNL     1       2.175  -0.293   0.000  0.00  0.00    +0.189 C 
ATOM      4  O   UNL     1       1.309   0.207   0.000  0.00  0.00    -0.458 OA
ATOM      5  C   UNL     1       1.309   1.207   0.000  0.00  0.00    +0.332 C 
ATOM      6  C   UNL     1       0.443   1.707   0.000  0.00  0.00    +0.091 C 
ATOM      7  C   UNL     1       0.443   2.707   0.000  0.00  0.00    +0.007 C 
ATOM      8  C   UNL     1      -0.423   3.207   0.000  0.00  0.00    -0.001 C 
ATOM      9  C   UNL     1      -1.289   2.707   0.000  0.00  0.00    +0.007 C 
ATOM     10  C   UNL     1      -2.155   3.207   0.000  0.00  0.00    +0.169 C 
ATOM     11  O   UNL     1      -3.021   2.707   0.000  0.00  0.00    -0.370 OA
ATOM     12  C   UNL     1      -3.021   1.707   0.000  0.00  0.00    +0.161 C 
ATOM     13  C   UNL     1      -2.155   1.207   0.000  0.00  0.00    +0.034 C 
ATOM     14  C   UNL     1      -2.155   0.207   0.000  0.00  0.00    +0.028 C 
ATOM     15  C   UNL     1      -3.021  -0.293   0.000  0.00  0.00    +0.011 C 
ATOM     16  C   UNL     1      -1.289  -0.293   0.000  0.00  0.00    +0.225 C 
ATOM     19  C   UNL     1      -1.289  -1.293   0.000  0.00  0.00    +0.336 C 
ATOM     20  O   UNL     1      -2.155  -1.793   0.000  0.00  0.00    -0.248 OA
ATOM     21  O   UNL     1      -0.423  -1.793   0.000  0.00  0.00    -0.462 OA
ATOM     22  C   UNL     1       0.443  -1.293   0.000  0.00  0.00    +0.242 C 
ATOM     27  O   UNL     1       2.175   1.707   0.000  0.00  0.00    -0.246 OA
ATOM     28  C   UNL     1       2.612  -1.575   0.000  0.00  0.00    +0.080 C 
ATOM     29  C   UNL     1       3.093  -2.841   0.000  0.00  0.00    +0.157 C 
ATOM     30  O   UNL     1       2.191  -3.362   0.000  0.00  0.00    -0.367 OA
ATOM     31  C   UNL     1       1.309  -2.793   0.000  0.00  0.00    +0.161 C 
ATOM     32  C   UNL     1       0.443  -3.293   0.000  0.00  0.00    +0.183 C 
ATOM     33  O   UNL     1      -0.423  -3.793   0.000  0.00  0.00    -0.360 OA
ATOM     34  C   UNL     1      -0.423  -2.793   0.000  0.00  0.00    +0.121 C 
ATOM     35  C   UNL     1      -0.423  -1.793   0.000  0.00  0.00    +0.149 C 
ATOM     38  C   UNL     1       0.443  -1.293   0.000  0.00  0.00    +0.048 C 
ATOM     39  C   UNL     1      -1.289  -2.293   0.000  0.00  0.00    +0.047 C 
ATOM     40  C   UNL     1       1.309  -1.793   0.000  0.00  0.00    +0.048 C 
ATOM     41  C   UNL     1       3.085  -1.799   0.000  0.00  0.00    +0.128 C 
ATOM     42  O   UNL     1       4.085  -1.788   0.000  0.00  0.00    -0.365 OA
ATOM     43  C   UNL     1       3.575  -0.928   0.000  0.00  0.00    +0.199 C 
ENDROOT
BRANCH  16  17
ATOM     17  O   UNL     1      -0.646   0.473   0.000  0.00  0.00    -0.380 OA
ATOM     18  H   UNL     1      -0.036   0.366   0.000  0.00  0.00    +0.211 HD
ENDBRANCH  16  17
BRANCH  10  23
ATOM     23  C   UNL     1      -2.155   4.207   0.000  0.00  0.00    +0.144 C 
ATOM     26  C   UNL     1      -1.289   4.707   0.000  0.00  0.00    +0.040 C 
BRANCH  23  24
ATOM     24  O   UNL     1      -3.021   4.707   0.000  0.00  0.00    -0.389 OA
ATOM     25  H   UNL     1      -3.021   5.327   0.000  0.00  0.00    +0.210 HD
ENDBRANCH  23  24
ENDBRANCH  10  23
BRANCH  35  36
ATOM     36  O   UNL     1      -0.423  -0.793   0.000  0.00  0.00    -0.389 OA
ATOM     37  H   UNL     1       0.114  -0.483   0.000  0.00  0.00    +0.210 HD
ENDBRANCH  35  36
TORSDOF 4