REMARK  Name = NSC 34552
REMARK  2 active torsions:
REMARK  status: ('A' for Active; 'I' for Inactive)
REMARK    1  A    between atoms: C_6  and  C_7
REMARK    2  A    between atoms: C_7  and  O_8
REMARK                            x       y       z     vdW  Elec       q    Type
REMARK                         _______ _______ _______ _____ _____    ______ ____
ROOT
ATOM      1  N   UNL     1       6.089   0.351   0.000  0.00  0.00    +0.223 N 
ATOM      2  C   UNL     1       4.790  -0.399   0.000  0.00  0.00    +0.131 C 
ATOM      3  C   UNL     1       3.490   0.351   0.000  0.00  0.00    +0.051 C 
ATOM      4  C   UNL     1       3.490   1.851   0.000  0.00  0.00    +0.011 C 
ATOM      5  C   UNL     1       4.790   2.601   0.000  0.00  0.00    +0.054 C 
ATOM      6  C   UNL     1       7.388  -0.399   0.000  0.00  0.00    +0.090 C 
ATOM     10  C   UNL     1       8.687   0.351   0.000  0.00  0.00    +0.057 C 
ATOM     11  C   UNL     1       8.687   1.851   0.000  0.00  0.00    +0.011 C 
ATOM     12  C   UNL     1       7.388   2.601   0.000  0.00  0.00    +0.054 C 
ATOM     13  C   UNL     1       6.089   1.851   0.000  0.00  0.00    +0.064 C 
ATOM     14  O   UNL     1       6.089  -1.149   0.000  0.00  0.00    -0.775 OA
ENDROOT
BRANCH   6   7
ATOM      7  C   UNL     1       7.388  -1.899   0.000  0.00  0.00    +0.210 C 
BRANCH   7   8
ATOM      8  O   UNL     1       6.089  -2.649   0.000  0.00  0.00    -0.389 OA
ATOM      9  H   UNL     1       5.249  -2.164   0.000  0.00  0.00    +0.210 HD
ENDBRANCH   7   8
ENDBRANCH   6   7
TORSDOF 2