REMARK  Name = NSC 31754
REMARK  3 active torsions:
REMARK  status: ('A' for Active; 'I' for Inactive)
REMARK    1  A    between atoms: C_12  and  O_13
REMARK    2  A    between atoms: C_14  and  O_15
REMARK    3  A    between atoms: C_16  and  O_17
REMARK                            x       y       z     vdW  Elec       q    Type
REMARK                         _______ _______ _______ _____ _____    ______ ____
ROOT
ATOM      1  O   UNL     1      -5.946  -0.750   0.000  0.00  0.00    -0.286 OA
ATOM      2  C   UNL     1      -5.946  -2.250   0.000  0.00  0.00    +0.198 C 
ATOM      3  C   UNL     1      -7.245  -3.000   0.000  0.00  0.00    +0.033 A 
ATOM      4  C   UNL     1      -8.544  -2.250   0.000  0.00  0.00    +0.012 A 
ATOM      5  C   UNL     1      -9.843  -3.000   0.000  0.00  0.00    +0.001 A 
ATOM      6  C   UNL     1      -9.843  -4.500   0.000  0.00  0.00    +0.001 A 
ATOM      7  C   UNL     1      -8.544  -5.250   0.000  0.00  0.00    +0.012 A 
ATOM      8  C   UNL     1      -7.245  -4.500   0.000  0.00  0.00    +0.033 A 
ATOM      9  C   UNL     1      -5.946  -5.250   0.000  0.00  0.00    +0.195 C 
ATOM     10  C   UNL     1      -4.647  -4.500   0.000  0.00  0.00    +0.040 A 
ATOM     11  C   UNL     1      -3.348  -5.250   0.000  0.00  0.00    +0.061 A 
ATOM     12  C   UNL     1      -2.049  -4.500   0.000  0.00  0.00    +0.163 A 
ATOM     15  C   UNL     1      -2.049  -3.000   0.000  0.00  0.00    +0.201 A 
ATOM     18  C   UNL     1      -3.348  -2.250   0.000  0.00  0.00    +0.174 A 
ATOM     21  O   UNL     1      -5.946  -6.750   0.000  0.00  0.00    -0.287 OA
ATOM     22  C   UNL     1      -4.647  -3.000   0.000  0.00  0.00    +0.078 A 
ENDROOT
BRANCH  12  13
ATOM     13  O   UNL     1      -0.750  -5.250   0.000  0.00  0.00    -0.503 OA
ATOM     14  H   UNL     1      -0.750  -6.187   0.000  0.00  0.00    +0.292 HD
ENDBRANCH  12  13
BRANCH  15  16
ATOM     16  O   UNL     1      -0.750  -2.250   0.000  0.00  0.00    -0.501 OA
ATOM     17  H   UNL     1       0.061  -2.718   0.000  0.00  0.00    +0.292 HD
ENDBRANCH  15  16
BRANCH  18  19
ATOM     19  O   UNL     1      -3.348  -0.750   0.000  0.00  0.00    -0.503 OA
ATOM     20  H   UNL     1      -2.537  -0.281   0.000  0.00  0.00    +0.292 HD
ENDBRANCH  18  19
TORSDOF 3