REMARK  Name = NSC 3071
REMARK  3 active torsions:
REMARK  status: ('A' for Active; 'I' for Inactive)
REMARK    1  A    between atoms: C_1  and  O_10
REMARK    2  A    between atoms: C_5  and  C_6
REMARK    3  A    between atoms: O_10  and  C_11
REMARK                            x       y       z     vdW  Elec       q    Type
REMARK                         _______ _______ _______ _____ _____    ______ ____
ROOT
ATOM      1  C   UNL     1      -2.150  -2.973   0.000  0.00  0.00    +0.170 C 
ATOM      2  C   UNL     1      -3.650  -2.973   0.000  0.00  0.00    +0.100 C 
ATOM      3  C   UNL     1      -4.399  -4.272   0.000  0.00  0.00    +0.186 C 
ATOM      4  O   UNL     1      -5.899  -4.272   0.000  0.00  0.00    -0.288 OA
ATOM      5  C   UNL     1      -3.650  -5.571   0.000  0.00  0.00    +0.000 C 
ATOM      6  C   UNL     1      -4.399  -6.870   0.000  0.00  0.00    +0.048 C 
ATOM      7  C   UNL     1      -2.150  -5.571   0.000  0.00  0.00    +0.061 C 
ATOM      8  C   UNL     1      -1.400  -4.272   0.000  0.00  0.00    +0.221 C 
ATOM      9  O   UNL     1       0.101  -4.272   0.000  0.00  0.00    -0.284 OA
ENDROOT
BRANCH   1  10
ATOM     10  O   UNL     1      -1.400  -1.674   0.000  0.00  0.00    -0.491 OA
ATOM     11  C   UNL     1       0.101  -1.674   0.000  0.00  0.00    +0.277 C 
ENDBRANCH   1  10
TORSDOF 1