REMARK  Name = NSC 32984
REMARK  5 active torsions:
REMARK  status: ('A' for Active; 'I' for Inactive)
REMARK    1  A    between atoms: C_5  and  O_6
REMARK    2  A    between atoms: O_6  and  C_7
REMARK    3  A    between atoms: C_8  and  O_9
REMARK    4  A    between atoms: O_9  and  C_10
REMARK    5  A    between atoms: N_15  and  C_16
REMARK                            x       y       z     vdW  Elec       q    Type
REMARK                         _______ _______ _______ _____ _____    ______ ____
ROOT
ATOM      1  O   UNL     1      -4.752  -6.398   0.000  0.00  0.00    -0.292 OA
ATOM      2  C   UNL     1      -3.870  -7.612   0.000  0.00  0.00    +0.168 C 
ATOM      3  C   UNL     1      -4.480  -8.982   0.000  0.00  0.00    +0.025 A 
ATOM      4  C   UNL     1      -5.972  -9.139   0.000  0.00  0.00    +0.061 A 
ATOM      5  C   UNL     1      -6.582 -10.509   0.000  0.00  0.00    +0.162 A 
ATOM      8  C   UNL     1      -5.700 -11.723   0.000  0.00  0.00    +0.162 A 
ATOM     11  C   UNL     1      -4.209 -11.566   0.000  0.00  0.00    +0.053 A 
ATOM     12  C   UNL     1      -3.599 -10.196   0.000  0.00  0.00    -0.032 A 
ATOM     13  C   UNL     1      -2.107 -10.039   0.000  0.00  0.00    +0.051 C 
ATOM     14  C   UNL     1      -1.497  -8.669   0.000  0.00  0.00    +0.089 C 
ATOM     15  N   UNL     1      -0.005  -8.512   0.000  0.00  0.00    -0.301 NA
ATOM     16  C   UNL     1       0.877  -9.725   0.000  0.00  0.00    +0.105 C 
ATOM     17  C   UNL     1       0.605  -7.141   0.000  0.00  0.00    +0.123 C 
ATOM     18  C   UNL     1      -0.277  -5.928   0.000  0.00  0.00    +0.016 A 
ATOM     19  C   UNL     1      -1.768  -6.085   0.000  0.00  0.00    -0.032 A 
ATOM     20  C   UNL     1      -2.650  -4.871   0.000  0.00  0.00    +0.008 A 
ATOM     21  C   UNL     1      -2.040  -3.501   0.000  0.00  0.00    +0.050 A 
ATOM     22  C   UNL     1      -0.548  -3.344   0.000  0.00  0.00    +0.167 A 
ATOM     23  O   UNL     1       0.334  -2.131   0.000  0.00  0.00    -0.453 OA
ATOM     24  C   UNL     1       1.760  -2.594   0.000  0.00  0.00    +0.466 C 
ATOM     25  O   UNL     1       1.760  -4.094   0.000  0.00  0.00    -0.452 OA
ATOM     26  C   UNL     1       0.334  -4.558   0.000  0.00  0.00    +0.171 A 
ATOM     27  C   UNL     1      -2.378  -7.455   0.000  0.00  0.00    +0.115 C 
ENDROOT
BRANCH   5   6
ATOM      6  O   UNL     1      -8.074 -10.666   0.000  0.00  0.00    -0.491 OA
ATOM      7  C   UNL     1      -8.684 -12.036   0.000  0.00  0.00    +0.277 C 
ENDBRANCH   5   6
BRANCH   8   9
ATOM      9  O   UNL     1      -6.311 -13.093   0.000  0.00  0.00    -0.491 OA
ATOM     10  C   UNL     1      -7.802 -13.250   0.000  0.00  0.00    +0.277 C 
ENDBRANCH   8   9
TORSDOF 2