REMARK  Name = NSC 30552
REMARK  13 active torsions:
REMARK  status: ('A' for Active; 'I' for Inactive)
REMARK    1  A    between atoms: C_4  and  O_5
REMARK    2  A    between atoms: C_6  and  C_7
REMARK    3  A    between atoms: C_7  and  C_8
REMARK    4  A    between atoms: C_9  and  C_10
REMARK    5  A    between atoms: C_9  and  C_11
REMARK    6  A    between atoms: C_12  and  O_13
REMARK    7  A    between atoms: C_17  and  C_18
REMARK    8  A    between atoms: C_18  and  C_19
REMARK    9  A    between atoms: C_20  and  C_21
REMARK   10  A    between atoms: C_20  and  C_22
REMARK   11  A    between atoms: C_23  and  O_24
REMARK   12  A    between atoms: O_24  and  C_25
REMARK   13  A    between atoms: C_26  and  O_27
REMARK                            x       y       z     vdW  Elec       q    Type
REMARK                         _______ _______ _______ _____ _____    ______ ____
ROOT
ATOM      1  O   UNL     1       9.843   0.750   0.000  0.00  0.00    -0.454 OA
ATOM      2  C   UNL     1       8.544   1.500   0.000  0.00  0.00    +0.146 A 
ATOM      3  C   UNL     1       7.245   0.750   0.000  0.00  0.00    +0.093 A 
ATOM      4  C   UNL     1       5.946   1.500   0.000  0.00  0.00    +0.127 A 
ATOM      7  C   UNL     1       5.946   3.000   0.000  0.00  0.00    +0.040 A 
ATOM     13  C   UNL     1       7.245   3.750   0.000  0.00  0.00    +0.138 A 
ATOM     16  C   UNL     1       8.544   3.000   0.000  0.00  0.00    +0.106 A 
ATOM     17  C   UNL     1       9.843   3.750   0.000  0.00  0.00    +0.204 A 
ATOM     18  C   UNL     1      11.142   3.000   0.000  0.00  0.00    +0.072 A 
ATOM     19  C   UNL     1      12.441   3.750   0.000  0.00  0.00    +0.016 A 
ATOM     25  C   UNL     1      13.740   3.000   0.000  0.00  0.00    +0.166 A 
ATOM     28  C   UNL     1      13.740   1.500   0.000  0.00  0.00    +0.162 A 
ATOM     31  C   UNL     1      12.441   0.750   0.000  0.00  0.00    +0.096 A 
ATOM     32  O   UNL     1       9.843   5.250   0.000  0.00  0.00    -0.286 OA
ATOM     33  C   UNL     1      11.142   1.500   0.000  0.00  0.00    +0.143 A 
ENDROOT
BRANCH   4   5
ATOM      5  O   UNL     1       4.647   0.750   0.000  0.00  0.00    -0.506 OA
ATOM      6  H   UNL     1       3.836   1.219   0.000  0.00  0.00    +0.292 HD
ENDBRANCH   4   5
BRANCH  13  14
ATOM     14  O   UNL     1       7.245   5.250   0.000  0.00  0.00    -0.506 OA
ATOM     15  H   UNL     1       8.057   5.718   0.000  0.00  0.00    +0.292 HD
ENDBRANCH  13  14
BRANCH  25  26
ATOM     26  O   UNL     1      15.039   3.750   0.000  0.00  0.00    -0.491 OA
ATOM     27  C   UNL     1      16.339   3.000   0.000  0.00  0.00    +0.277 C 
ENDBRANCH  25  26
BRANCH  28  29
ATOM     29  O   UNL     1      15.039   0.750   0.000  0.00  0.00    -0.503 OA
ATOM     30  H   UNL     1      15.039  -0.187   0.000  0.00  0.00    +0.292 HD
ENDBRANCH  28  29
BRANCH   7   8
ATOM      8  C   UNL     1       4.647   3.750   0.000  0.00  0.00    +0.069 C 
BRANCH   8   9
ATOM      9  C   UNL     1       3.348   3.000   0.000  0.00  0.00    -0.023 C 
ATOM     10  C   UNL     1       2.049   3.750   0.000  0.00  0.00    -0.079 C 
ATOM     11  C   UNL     1       0.750   3.000   0.000  0.00  0.00    +0.038 C 
ATOM     12  C   UNL     1       2.049   5.250   0.000  0.00  0.00    +0.038 C 
ENDBRANCH   8   9
ENDBRANCH   7   8
BRANCH  19  20
ATOM     20  C   UNL     1      12.441   5.250   0.000  0.00  0.00    +0.067 C 
BRANCH  20  21
ATOM     21  C   UNL     1      11.142   6.000   0.000  0.00  0.00    -0.023 C 
ATOM     22  C   UNL     1      11.142   7.500   0.000  0.00  0.00    -0.079 C 
ATOM     23  C   UNL     1      12.441   8.250   0.000  0.00  0.00    +0.038 C 
ATOM     24  C   UNL     1       9.843   8.250   0.000  0.00  0.00    +0.038 C 
ENDBRANCH  20  21
ENDBRANCH  19  20
TORSDOF 8