REMARK  Name = NSC 31048
REMARK  17 active torsions:
REMARK  status: ('A' for Active; 'I' for Inactive)
REMARK    1  A    between atoms: C_1  and  O_2
REMARK    2  A    between atoms: C_3  and  O_41
REMARK    3  A    between atoms: C_6  and  C_7
REMARK    4  A    between atoms: C_12  and  O_13
REMARK    5  A    between atoms: C_15  and  O_16
REMARK    6  A    between atoms: O_16  and  C_17
REMARK    7  A    between atoms: C_18  and  O_19
REMARK    8  A    between atoms: O_19  and  C_20
REMARK    9  A    between atoms: C_21  and  O_22
REMARK   10  A    between atoms: C_23  and  O_24
REMARK   11  A    between atoms: C_25  and  O_26
REMARK   12  A    between atoms: C_27  and  C_28
REMARK   13  A    between atoms: C_30  and  O_31
REMARK   14  A    between atoms: C_32  and  O_33
REMARK   15  A    between atoms: C_34  and  C_35
REMARK   16  A    between atoms: C_35  and  O_36
REMARK   17  A    between atoms: O_41  and  C_42
REMARK                            x       y       z     vdW  Elec       q    Type
REMARK                         _______ _______ _______ _____ _____    ______ ____
ROOT
ATOM     19  C   UNL     1       0.424   9.810   0.000  0.00  0.00    +0.340 C 
ATOM     20  C   UNL     1      -0.985  10.323   0.000  0.00  0.00    +0.221 C 
ATOM     35  C   UNL     1      -2.134   9.359   0.000  0.00  0.00    +0.180 C 
ATOM     38  C   UNL     1      -1.874   7.882   0.000  0.00  0.00    +0.177 C 
ATOM     41  C   UNL     1      -0.464   7.369   0.000  0.00  0.00    +0.179 C 
ATOM     45  O   UNL     1       0.685   8.333   0.000  0.00  0.00    -0.331 OA
ENDROOT
BRANCH  35  36
ATOM     36  O   UNL     1      -0.725   8.846   0.000  0.00  0.00    -0.386 OA
ATOM     37  H   UNL     1      -0.556   7.891   0.000  0.00  0.00    +0.210 HD
ENDBRANCH  35  36
BRANCH  38  39
ATOM     39  O   UNL     1      -3.023   6.918   0.000  0.00  0.00    -0.386 OA
ATOM     40  H   UNL     1      -3.934   7.250   0.000  0.00  0.00    +0.210 HD
ENDBRANCH  38  39
BRANCH  19  18
ATOM     18  O   UNL     1       1.573  10.775   0.000  0.00  0.00    -0.461 OA
BRANCH  18  17
ATOM      8  C   UNL     1       8.069  10.025   0.000  0.00  0.00    +0.211 C 
ATOM      9  C   UNL     1       8.069   8.524   0.000  0.00  0.00    +0.129 C 
ATOM     10  C   UNL     1       6.770   7.774   0.000  0.00  0.00    +0.174 C 
ATOM     11  O   UNL     1       6.770   6.274   0.000  0.00  0.00    -0.292 OA
ATOM     12  C   UNL     1       5.471   8.524   0.000  0.00  0.00    +0.101 A 
ATOM     13  C   UNL     1       4.172   7.774   0.000  0.00  0.00    +0.134 A 
ATOM     16  C   UNL     1       2.873   8.524   0.000  0.00  0.00    +0.092 A 
ATOM     17  C   UNL     1       2.873  10.025   0.000  0.00  0.00    +0.131 A 
ATOM     46  C   UNL     1       4.172  10.775   0.000  0.00  0.00    +0.092 A 
ATOM     47  C   UNL     1       5.471  10.025   0.000  0.00  0.00    +0.139 A 
ATOM     48  O   UNL     1       6.770  10.775   0.000  0.00  0.00    -0.483 OA
BRANCH   8   7
ATOM      1  C   UNL     1      10.667  13.025   0.000  0.00  0.00    +0.159 A 
ATOM      4  C   UNL     1      11.966  12.275   0.000  0.00  0.00    +0.161 A 
ATOM      5  C   UNL     1      11.966  10.775   0.000  0.00  0.00    +0.050 A 
ATOM      6  C   UNL     1      10.667  10.025   0.000  0.00  0.00    +0.011 A 
ATOM      7  C   UNL     1       9.368  10.775   0.000  0.00  0.00    -0.003 A 
ATOM     51  C   UNL     1       9.368  12.275   0.000  0.00  0.00    +0.056 A 
BRANCH   1   2
ATOM      2  O   UNL     1      10.667  14.525   0.000  0.00  0.00    -0.503 OA
ATOM      3  H   UNL     1      11.478  14.993   0.000  0.00  0.00    +0.292 HD
ENDBRANCH   1   2
BRANCH   4  49
ATOM     49  O   UNL     1      13.265  13.025   0.000  0.00  0.00    -0.491 OA
ATOM     50  C   UNL     1      13.265  14.525   0.000  0.00  0.00    +0.277 C 
ENDBRANCH   4  49
ENDBRANCH   8   7
BRANCH  13  14
ATOM     14  O   UNL     1       4.172   6.274   0.000  0.00  0.00    -0.506 OA
ATOM     15  H   UNL     1       3.360   5.806   0.000  0.00  0.00    +0.292 HD
ENDBRANCH  13  14
ENDBRANCH  18  17
ENDBRANCH  19  18
BRANCH  20  21
ATOM     21  O   UNL     1      -1.246  11.801   0.000  0.00  0.00    -0.337 OA
BRANCH  21  22
ATOM     22  C   UNL     1      -2.655  12.314   0.000  0.00  0.00    +0.282 C 
ATOM     23  C   UNL     1      -2.916  13.791   0.000  0.00  0.00    +0.201 C 
ATOM     26  C   UNL     1      -4.325  14.304   0.000  0.00  0.00    +0.179 C 
ATOM     29  C   UNL     1      -5.474  13.340   0.000  0.00  0.00    +0.174 C 
ATOM     32  C   UNL     1      -5.214  11.862   0.000  0.00  0.00    +0.149 C 
ATOM     33  C   UNL     1      -4.065  12.827   0.000  0.00  0.00    +0.041 C 
ATOM     34  O   UNL     1      -3.804  11.349   0.000  0.00  0.00    -0.343 OA
BRANCH  23  24
ATOM     24  O   UNL     1      -1.767  14.755   0.000  0.00  0.00    -0.384 OA
ATOM     25  H   UNL     1      -0.855  14.423   0.000  0.00  0.00    +0.210 HD
ENDBRANCH  23  24
BRANCH  26  27
ATOM     27  O   UNL     1      -4.586  15.781   0.000  0.00  0.00    -0.386 OA
ATOM     28  H   UNL     1      -3.843  16.405   0.000  0.00  0.00    +0.210 HD
ENDBRANCH  26  27
BRANCH  29  30
ATOM     30  O   UNL     1      -6.884  13.853   0.000  0.00  0.00    -0.387 OA
ATOM     31  H   UNL     1      -7.052  14.808   0.000  0.00  0.00    +0.210 HD
ENDBRANCH  29  30
ENDBRANCH  21  22
ENDBRANCH  20  21
BRANCH  41  42
ATOM     42  C   UNL     1      -0.204   5.892   0.000  0.00  0.00    +0.190 C 
BRANCH  42  43
ATOM     43  O   UNL     1      -1.353   4.928   0.000  0.00  0.00    -0.392 OA
ATOM     44  H   UNL     1      -2.264   5.259   0.000  0.00  0.00    +0.210 HD
ENDBRANCH  42  43
ENDBRANCH  41  42
TORSDOF 15