REMARK  Name = NSC 330500
REMARK  15 active torsions:
REMARK  status: ('A' for Active; 'I' for Inactive)
REMARK    1  A    between atoms: C_3  and  O_4
REMARK    2  A    between atoms: O_4  and  C_5
REMARK    3  A    between atoms: C_6  and  C_7
REMARK    4  A    between atoms: C_9  and  O_10
REMARK    5  A    between atoms: O_10  and  C_11
REMARK    6  A    between atoms: C_12  and  O_13
REMARK    7  A    between atoms: O_13  and  C_14
REMARK    8  A    between atoms: C_15  and  C_16
REMARK    9  A    between atoms: C_18  and  C_19
REMARK   10  A    between atoms: C_20  and  O_21
REMARK   11  A    between atoms: O_21  and  C_22
REMARK   12  A    between atoms: C_25  and  C_26
REMARK   13  A    between atoms: C_30  and  C_31
REMARK   14  A    between atoms: C_37  and  O_38
REMARK   15  A    between atoms: C_39  and  O_40
REMARK                            x       y       z     vdW  Elec       q    Type
REMARK                         _______ _______ _______ _____ _____    ______ ____
ROOT
ATOM      1  C   UNL     1       4.764   1.105   0.000  0.00  0.00    +0.055 A 
ATOM      2  C   UNL     1       3.350   0.603   0.000  0.00  0.00    +0.028 A 
ATOM      3  C   UNL     1       3.849  -0.320   0.000  0.00  0.00    +0.154 C 
ATOM      6  C   UNL     1       2.563  -1.090   0.000  0.00  0.00    +0.022 C 
ATOM      7  C   UNL     1       1.244  -0.376   0.000  0.00  0.00    +0.010 C 
ATOM      8  C   UNL     1       2.620  -2.589   0.000  0.00  0.00    +0.040 C 
ATOM      9  C   UNL     1       1.267  -3.236   0.000  0.00  0.00    +0.147 C 
ATOM     12  C   UNL     1       0.136  -2.251   0.000  0.00  0.00    +0.153 C 
ATOM     15  C   UNL     1      -0.716  -3.485   0.000  0.00  0.00    +0.040 C 
ATOM     16  C   UNL     1       0.056  -4.771   0.000  0.00  0.00    +0.014 C 
ATOM     17  C   UNL     1      -2.207  -3.657   0.000  0.00  0.00    -0.019 C 
ATOM     18  C   UNL     1      -3.240  -2.570   0.000  0.00  0.00    -0.036 C 
ATOM     19  C   UNL     1      -4.674  -3.010   0.000  0.00  0.00    +0.042 C 
ATOM     20  C   UNL     1      -2.993  -1.091   0.000  0.00  0.00    +0.210 C 
ATOM     27  C   UNL     1      -1.718  -0.302   0.000  0.00  0.00    +0.054 C 
ATOM     28  C   UNL     1      -0.218  -0.258   0.000  0.00  0.00    +0.016 C 
ATOM     29  C   UNL     1      -3.037   0.413   0.000  0.00  0.00    -0.020 C 
ATOM     30  C   UNL     1      -2.980   1.912   0.000  0.00  0.00    -0.003 C 
ATOM     31  C   UNL     1      -1.755   2.778   0.000  0.00  0.00    +0.008 C 
ATOM     32  C   UNL     1      -0.436   2.064   0.000  0.00  0.00    +0.012 C 
ATOM     33  C   UNL     1       0.211   0.710   0.000  0.00  0.00    +0.049 C 
ATOM     34  C   UNL     1      -0.165   3.539   0.000  0.00  0.00    +0.244 C 
ATOM     35  N   UNL     1       1.279   3.948   0.000  0.00  0.00    -0.279 N 
ATOM     36  H   UNL     1       1.457   4.916   0.000  0.00  0.00    +0.155 HD
ATOM     37  C   UNL     1       2.481   3.051   0.000  0.00  0.00    +0.079 A 
ATOM     38  C   UNL     1       3.894   3.553   0.000  0.00  0.00    +0.072 A 
ATOM     39  O   UNL     1      -1.274   4.548   0.000  0.00  0.00    -0.270 OA
ATOM     40  C   UNL     1       2.209   1.576   0.000  0.00  0.00    +0.144 A 
ATOM     43  C   UNL     1       5.036   2.580   0.000  0.00  0.00    +0.119 A 
ENDROOT
BRANCH   3   4
ATOM      4  O   UNL     1       5.296  -0.716   0.000  0.00  0.00    -0.375 OA
ATOM      5  C   UNL     1       6.363   0.338   0.000  0.00  0.00    +0.194 C 
ENDBRANCH   3   4
BRANCH   9  10
ATOM     10  O   UNL     1       1.064  -4.723   0.000  0.00  0.00    -0.377 OA
ATOM     11  C   UNL     1       2.250  -5.641   0.000  0.00  0.00    +0.194 C 
ENDBRANCH   9  10
BRANCH  12  13
ATOM     13  O   UNL     1       0.470  -0.788   0.000  0.00  0.00    -0.377 OA
ATOM     14  C   UNL     1      -0.630   0.232   0.000  0.00  0.00    +0.194 C 
ENDBRANCH  12  13
BRANCH  40  41
ATOM     41  O   UNL     1       0.795   1.074   0.000  0.00  0.00    -0.505 OA
ATOM     42  H   UNL     1       0.082   1.682   0.000  0.00  0.00    +0.292 HD
ENDBRANCH  40  41
BRANCH  43  44
ATOM     44  O   UNL     1       6.449   3.083   0.000  0.00  0.00    -0.507 OA
ATOM     45  H   UNL     1       7.162   2.475   0.000  0.00  0.00    +0.292 HD
ENDBRANCH  43  44
BRANCH  20  21
ATOM     21  O   UNL     1      -4.239  -0.255   0.000  0.00  0.00    -0.442 OA
BRANCH  21  22
ATOM     22  C   UNL     1      -5.585  -0.916   0.000  0.00  0.00    +0.398 C 
ATOM     23  N   UNL     1      -6.831  -0.080   0.000  0.00  0.00    -0.295 N 
ATOM     24  H   UNL     1      -7.715  -0.513   0.000  0.00  0.00    +0.148 HD
ATOM     25  H   UNL     1      -6.764   0.903   0.000  0.00  0.00    +0.148 HD
ATOM     26  O   UNL     1      -5.686  -2.412   0.000  0.00  0.00    -0.227 OA
ENDBRANCH  21  22
ENDBRANCH  20  21
TORSDOF 7