REMARK  Name = NSC 330917
REMARK  4 active torsions:
REMARK  status: ('A' for Active; 'I' for Inactive)
REMARK    1  A    between atoms: N_5  and  C_8
REMARK    2  A    between atoms: C_9  and  O_10
REMARK    3  A    between atoms: C_11  and  O_12
REMARK    4  A    between atoms: C_16  and  N_17
REMARK                            x       y       z     vdW  Elec       q    Type
REMARK                         _______ _______ _______ _____ _____    ______ ____
ROOT
ATOM      1  N   UNL     1      -1.920   3.706   0.000  0.00  0.00    -0.219 NA
ATOM      2  C   UNL     1      -2.703   2.426   0.000  0.00  0.00    +0.225 A 
ATOM      3  N   UNL     1      -1.986   1.109   0.000  0.00  0.00    -0.216 NA
ATOM      4  C   UNL     1      -0.486   1.071   0.000  0.00  0.00    +0.167 A 
ATOM      5  N   UNL     1       0.489  -0.068   0.000  0.00  0.00    -0.286 N 
ATOM      6  C   UNL     1       1.874   0.507   0.000  0.00  0.00    +0.203 A 
ATOM      7  N   UNL     1       1.755   2.002   0.000  0.00  0.00    -0.231 NA
ATOM     17  C   UNL     1       0.296   2.351   0.000  0.00  0.00    +0.147 A 
ATOM     18  C   UNL     1      -0.421   3.668   0.000  0.00  0.00    +0.147 A 
ENDROOT
BRANCH   5   8
ATOM      8  C   UNL     1       0.141  -1.527   0.000  0.00  0.00    +0.253 C 
ATOM      9  C   UNL     1       1.116  -2.667   0.000  0.00  0.00    +0.195 C 
ATOM     12  C   UNL     1       0.333  -3.947   0.000  0.00  0.00    +0.173 C 
ATOM     15  C   UNL     1      -1.126  -3.598   0.000  0.00  0.00    +0.196 C 
ATOM     16  O   UNL     1      -1.245  -2.103   0.000  0.00  0.00    -0.351 OA
BRANCH   9  10
ATOM     10  O   UNL     1       2.611  -2.548   0.000  0.00  0.00    -0.385 OA
ATOM     11  H   UNL     1       3.161  -3.347   0.000  0.00  0.00    +0.210 HD
ENDBRANCH   9  10
BRANCH  12  13
ATOM     13  O   UNL     1       0.909  -5.332   0.000  0.00  0.00    -0.387 OA
ATOM     14  H   UNL     1       0.319  -6.102   0.000  0.00  0.00    +0.210 HD
ENDBRANCH  12  13
ENDBRANCH   5   8
BRANCH  18  19
ATOM     19  N   UNL     1       0.362   4.948   0.000  0.00  0.00    -0.341 N 
ATOM     20  H   UNL     1      -0.109   5.813   0.000  0.00  0.00    +0.144 HD
ATOM     21  H   UNL     1       1.346   4.923   0.000  0.00  0.00    +0.144 HD
ENDBRANCH  18  19
TORSDOF 4