REMARK  Name = NSC 332294#1
REMARK  5 active torsions:
REMARK  status: ('A' for Active; 'I' for Inactive)
REMARK    1  A    between atoms: N_1  and  C_2
REMARK    2  A    between atoms: C_2  and  C_3
REMARK    3  A    between atoms: C_3  and  C_4
REMARK    4  A    between atoms: C_15  and  C_16
REMARK    5  A    between atoms: N_19  and  C_20
REMARK                            x       y       z     vdW  Elec       q    Type
REMARK                         _______ _______ _______ _____ _____    ______ ____
ROOT
ATOM      1  N   UNL     1       3.531   7.084   0.000  0.00  0.00    -0.346 N 
ATOM      5  C   UNL     1       4.878   6.424   0.000  0.00  0.00    +0.090 A 
ATOM      6  C   UNL     1       5.864   7.554   0.000  0.00  0.00    -0.020 A 
ATOM      7  C   UNL     1       7.360   7.656   0.000  0.00  0.00    +0.056 C 
ATOM      8  C   UNL     1       8.020   9.003   0.000  0.00  0.00    +0.068 C 
ATOM      9  C   UNL     1       7.184  10.248   0.000  0.00  0.00    +0.037 C 
ATOM     10  C   UNL     1       5.687  10.146   0.000  0.00  0.00    -0.033 A 
ATOM     11  C   UNL     1       4.850  11.391   0.000  0.00  0.00    +0.004 A 
ATOM     12  C   UNL     1       3.354  11.289   0.000  0.00  0.00    +0.002 A 
ATOM     13  C   UNL     1       2.694   9.942   0.000  0.00  0.00    +0.026 A 
ATOM     14  C   UNL     1       7.843  11.595   0.000  0.00  0.00    +0.014 C 
ATOM     15  C   UNL     1       9.340  11.697   0.000  0.00  0.00    +0.001 C 
ATOM     16  C   UNL     1      10.000  13.044   0.000  0.00  0.00    +0.009 C 
ATOM     17  C   UNL     1      10.177  10.452   0.000  0.00  0.00    +0.087 C 
ATOM     18  N   UNL     1       9.517   9.105   0.000  0.00  0.00    -0.301 NA
ATOM     19  C   UNL     1      10.353   7.860   0.000  0.00  0.00    +0.105 C 
ATOM     20  C   UNL     1       5.027   8.799   0.000  0.00  0.00    +0.007 A 
ATOM     21  C   UNL     1       3.531   8.697   0.000  0.00  0.00    +0.050 A 
ENDROOT
BRANCH   1   2
ATOM      2  C   UNL     1       2.258   6.290   0.000  0.00  0.00    +0.121 C 
BRANCH   2   3
ATOM      3  C   UNL     1       0.934   6.995   0.000  0.00  0.00    +0.018 C 
ATOM      4  C   UNL     1      -0.339   6.202   0.000  0.00  0.00    +0.005 C 
ENDBRANCH   2   3
ENDBRANCH   1   2
TORSDOF 2