REMARK  Name = NSC 355637
REMARK  12 active torsions:
REMARK  status: ('A' for Active; 'I' for Inactive)
REMARK    1  A    between atoms: C_1  and  O_2
REMARK    2  A    between atoms: O_2  and  C_3
REMARK    3  A    between atoms: C_4  and  O_5
REMARK    4  A    between atoms: O_5  and  C_6
REMARK    5  A    between atoms: C_13  and  O_14
REMARK    6  A    between atoms: O_14  and  C_15
REMARK    7  A    between atoms: C_17  and  N_18
REMARK    8  A    between atoms: C_19  and  O_20
REMARK    9  A    between atoms: O_20  and  C_21
REMARK   10  A    between atoms: C_21  and  C_22
REMARK   11  A    between atoms: C_29  and  O_30
REMARK   12  A    between atoms: O_30  and  C_31
REMARK                            x       y       z     vdW  Elec       q    Type
REMARK                         _______ _______ _______ _____ _____    ______ ____
ROOT
ATOM      1  C   UNL     1       4.105   7.205   0.000  0.00  0.00    +0.204 A 
ATOM      4  C   UNL     1       5.404   6.455   0.000  0.00  0.00    +0.173 A 
ATOM      7  C   UNL     1       6.703   7.205   0.000  0.00  0.00    +0.031 A 
ATOM      8  C   UNL     1       7.876   6.269   0.000  0.00  0.00    -0.009 A 
ATOM      9  C   UNL     1       9.338   6.603   0.000  0.00  0.00    -0.016 A 
ATOM     10  C   UNL     1      10.511   5.668   0.000  0.00  0.00    +0.060 A 
ATOM     11  C   UNL     1      10.511   4.168   0.000  0.00  0.00    +0.221 A 
ATOM     12  O   UNL     1      11.862   3.517   0.000  0.00  0.00    -0.284 OA
ATOM     13  C   UNL     1       9.338   3.233   0.000  0.00  0.00    +0.167 A 
ATOM     16  C   UNL     1       7.876   3.566   0.000  0.00  0.00    +0.050 A 
ATOM     17  C   UNL     1       9.989   7.955   0.000  0.00  0.00    +0.107 C 
ATOM     25  C   UNL     1       9.338   9.306   0.000  0.00  0.00    +0.032 C 
ATOM     26  C   UNL     1       7.876   9.640   0.000  0.00  0.00    +0.038 C 
ATOM     27  C   UNL     1       7.225   4.918   0.000  0.00  0.00    +0.012 A 
ATOM     28  C   UNL     1       6.703   8.705   0.000  0.00  0.00    -0.032 A 
ATOM     29  C   UNL     1       5.404   9.455   0.000  0.00  0.00    +0.054 A 
ATOM     30  C   UNL     1       4.105   8.705   0.000  0.00  0.00    +0.165 A 
ENDROOT
BRANCH  17  18
ATOM     18  N   UNL     1      11.489   7.955   0.000  0.00  0.00    -0.274 N 
ATOM     19  H   UNL     1      11.981   7.102   0.000  0.00  0.00    +0.153 HD
ATOM     20  C   UNL     1      12.239   9.254   0.000  0.00  0.00    +0.401 C 
ATOM     24  O   UNL     1      11.489  10.553   0.000  0.00  0.00    -0.226 OA
BRANCH  20  21
ATOM     21  O   UNL     1      13.739   9.254   0.000  0.00  0.00    -0.451 OA
BRANCH  21  22
ATOM     22  C   UNL     1      14.489  10.553   0.000  0.00  0.00    +0.230 C 
ATOM     23  C   UNL     1      13.739  11.852   0.000  0.00  0.00    +0.048 C 
ENDBRANCH  21  22
ENDBRANCH  20  21
ENDBRANCH  17  18
BRANCH   1   2
ATOM      2  O   UNL     1       2.806   6.455   0.000  0.00  0.00    -0.488 OA
ATOM      3  C   UNL     1       1.507   7.205   0.000  0.00  0.00    +0.277 C 
ENDBRANCH   1   2
BRANCH   4   5
ATOM      5  O   UNL     1       5.404   4.955   0.000  0.00  0.00    -0.491 OA
ATOM      6  C   UNL     1       4.105   4.205   0.000  0.00  0.00    +0.277 C 
ENDBRANCH   4   5
BRANCH  13  14
ATOM     14  O   UNL     1       9.672   1.770   0.000  0.00  0.00    -0.491 OA
ATOM     15  C   UNL     1       8.572   0.750   0.000  0.00  0.00    +0.277 C 
ENDBRANCH  13  14
BRANCH  30  31
ATOM     31  O   UNL     1       2.806   9.455   0.000  0.00  0.00    -0.491 OA
ATOM     32  C   UNL     1       2.806  10.955   0.000  0.00  0.00    +0.277 C 
ENDBRANCH  30  31
TORSDOF 7