REMARK  Name = NSC 32192
REMARK  2 active torsions:
REMARK  status: ('A' for Active; 'I' for Inactive)
REMARK    1  A    between atoms: C_9  and  C_10
REMARK    2  A    between atoms: N_23  and  C_24
REMARK                            x       y       z     vdW  Elec       q    Type
REMARK                         _______ _______ _______ _____ _____    ______ ____
ROOT
ATOM     10  C   UNL     1       8.749   3.115   0.000  0.00  0.00    +0.133 C 
ATOM     11  C   UNL     1      10.205   2.752   0.000  0.00  0.00    -0.020 A 
ATOM     12  C   UNL     1      10.618   1.310   0.000  0.00  0.00    +0.055 A 
ATOM     13  C   UNL     1      12.074   0.947   0.000  0.00  0.00    +0.167 A 
ATOM     14  C   UNL     1      13.116   2.026   0.000  0.00  0.00    +0.167 A 
ATOM     15  C   UNL     1      12.702   3.468   0.000  0.00  0.00    +0.053 A 
ATOM     16  O   UNL     1      14.464   1.368   0.000  0.00  0.00    -0.453 OA
ATOM     17  C   UNL     1      14.255  -0.117   0.000  0.00  0.00    +0.466 C 
ATOM     18  O   UNL     1      12.778  -0.378   0.000  0.00  0.00    -0.453 OA
ATOM     19  C   UNL     1      11.247   3.831   0.000  0.00  0.00    -0.038 A 
ATOM     20  C   UNL     1      10.833   5.273   0.000  0.00  0.00    +0.051 C 
ATOM     21  C   UNL     1       9.378   5.635   0.000  0.00  0.00    +0.089 C 
ATOM     22  N   UNL     1       8.336   4.556   0.000  0.00  0.00    -0.295 NA
ATOM     23  C   UNL     1       6.880   4.919   0.000  0.00  0.00    +0.105 C 
ENDROOT
BRANCH  10   9
ATOM      1  O   UNL     1       0.386   2.235   0.000  0.00  0.00    -0.453 OA
ATOM      2  C   UNL     1       0.386   0.735   0.000  0.00  0.00    +0.466 C 
ATOM      3  O   UNL     1       1.813   0.272   0.000  0.00  0.00    -0.452 OA
ATOM      4  C   UNL     1       2.694   1.485   0.000  0.00  0.00    +0.181 A 
ATOM      5  C   UNL     1       4.186   1.642   0.000  0.00  0.00    +0.111 A 
ATOM      6  C   UNL     1       5.301   0.638   0.000  0.00  0.00    +0.344 C 
ATOM      7  O   UNL     1       5.144  -0.853   0.000  0.00  0.00    -0.245 OA
ATOM      8  O   UNL     1       6.600   1.389   0.000  0.00  0.00    -0.451 OA
ATOM      9  C   UNL     1       6.288   2.856   0.000  0.00  0.00    +0.229 C 
ATOM     24  C   UNL     1       4.796   3.013   0.000  0.00  0.00    +0.012 A 
ATOM     25  C   UNL     1       3.914   4.226   0.000  0.00  0.00    +0.012 A 
ATOM     26  C   UNL     1       2.423   4.069   0.000  0.00  0.00    +0.050 A 
ATOM     27  C   UNL     1       1.813   2.699   0.000  0.00  0.00    +0.167 A 
ENDBRANCH  10   9
TORSDOF 1