REMARK  Name = 59782
REMARK  4 active torsions:
REMARK  status: ('A' for Active; 'I' for Inactive)
REMARK    1  A    between atoms: N_1  and  C_18
REMARK    2  A    between atoms: N_2  and  C_19
REMARK    3  A    between atoms: C_6  and  C_9
REMARK    4  A    between atoms: C_10  and  C_11
REMARK                            x       y       z     vdW  Elec       q    Type
REMARK                         _______ _______ _______ _____ _____    ______ ____
ROOT
ATOM      1  N   UNL     1      -4.602  -4.682   0.000  0.00  0.00    -0.315 N 
ATOM      2  C   UNL     1      -6.029  -5.146   0.000  0.00  0.00    +0.131 C 
ATOM      3  C   UNL     1      -4.138  -3.255   0.000  0.00  0.00    +0.213 C 
ATOM      4  N   UNL     1      -2.639  -3.255   0.000  0.00  0.00    -0.315 N 
ATOM      5  C   UNL     1      -1.757  -2.042   0.000  0.00  0.00    +0.131 C 
ATOM      6  C   UNL     1      -2.175  -4.682   0.000  0.00  0.00    +0.060 C 
ATOM     13  C   UNL     1      -3.389  -5.564   0.000  0.00  0.00    +0.060 C 
ENDROOT
BRANCH   6   7
ATOM      7  C   UNL     1      -0.748  -5.146   0.000  0.00  0.00    +0.001 A 
ATOM      8  C   UNL     1      -0.437  -6.613   0.000  0.00  0.00    +0.029 A 
ATOM      9  C   UNL     1       0.990  -7.076   0.000  0.00  0.00    +0.111 A 
ATOM     10  N   UNL     1       2.105  -6.073   0.000  0.00  0.00    -0.263 NA
ATOM     11  C   UNL     1       1.793  -4.605   0.000  0.00  0.00    +0.111 A 
ATOM     12  C   UNL     1       0.366  -4.142   0.000  0.00  0.00    +0.029 A 
ENDBRANCH   6   7
BRANCH  13  14
ATOM     14  C   UNL     1      -3.389  -7.064   0.000  0.00  0.00    +0.001 A 
ATOM     15  C   UNL     1      -4.688  -7.814   0.000  0.00  0.00    +0.029 A 
ATOM     16  C   UNL     1      -4.688  -9.314   0.000  0.00  0.00    +0.111 A 
ATOM     17  N   UNL     1      -3.389 -10.064   0.000  0.00  0.00    -0.263 NA
ATOM     18  C   UNL     1      -2.090  -9.314   0.000  0.00  0.00    +0.111 A 
ATOM     19  C   UNL     1      -2.090  -7.814   0.000  0.00  0.00    +0.029 A 
ENDBRANCH  13  14
TORSDOF 2