REMARK  Name = 60785
REMARK  3 active torsions:
REMARK  status: ('A' for Active; 'I' for Inactive)
REMARK    1  A    between atoms: C_13  and  C_26
REMARK    2  A    between atoms: C_21  and  C_27
REMARK    3  A    between atoms: C_23  and  O_28
REMARK                            x       y       z     vdW  Elec       q    Type
REMARK                         _______ _______ _______ _____ _____    ______ ____
ROOT
ATOM      1  C   UNL     1      -2.284   5.919   0.000  0.00  0.00    +0.001 A 
ATOM      2  C   UNL     1      -2.284   4.419   0.000  0.00  0.00    +0.002 A 
ATOM      3  C   UNL     1      -0.985   3.669   0.000  0.00  0.00    +0.026 A 
ATOM      4  C   UNL     1       0.315   4.419   0.000  0.00  0.00    +0.047 A 
ATOM      5  N   UNL     1       1.741   3.955   0.000  0.00  0.00    -0.358 N 
ATOM      6  H   UNL     1       2.205   2.529   0.000  0.00  0.00    +0.166 HD
ATOM      7  C   UNL     1       2.623   5.169   0.000  0.00  0.00    +0.020 A 
ATOM      8  C   UNL     1       4.115   5.326   0.000  0.00  0.00    +0.057 C 
ATOM      9  C   UNL     1       4.725   6.696   0.000  0.00  0.00    +0.001 C 
ATOM     10  C   UNL     1       6.216   6.853   0.000  0.00  0.00    +0.005 C 
ATOM     11  C   UNL     1       6.827   8.223   0.000  0.00  0.00    +0.004 C 
ATOM     12  C   UNL     1       5.945   9.437   0.000  0.00  0.00    -0.004 C 
ATOM     13  C   UNL     1       6.555  10.807   0.000  0.00  0.00    +0.001 C 
ATOM     14  C   UNL     1       7.982  11.271   0.000  0.00  0.00    +0.007 C 
ATOM     15  C   UNL     1       7.982  12.771   0.000  0.00  0.00    +0.032 C 
ATOM     16  C   UNL     1       6.555  13.234   0.000  0.00  0.00    +0.121 C 
ATOM     19  C   UNL     1       5.673  12.021   0.000  0.00  0.00    -0.003 C 
ATOM     20  C   UNL     1       4.923  13.320   0.000  0.00  0.00    +0.014 C 
ATOM     21  C   UNL     1       4.181  11.864   0.000  0.00  0.00    +0.010 C 
ATOM     22  C   UNL     1       3.571  10.493   0.000  0.00  0.00    +0.005 C 
ATOM     23  C   UNL     1       4.453   9.280   0.000  0.00  0.00    -0.001 C 
ATOM     24  C   UNL     1       3.843   7.910   0.000  0.00  0.00    -0.022 C 
ATOM     25  C   UNL     1       2.961   9.123   0.000  0.00  0.00    +0.012 C 
ATOM     26  C   UNL     1       2.351   7.753   0.000  0.00  0.00    +0.044 C 
ATOM     27  C   UNL     1       1.741   6.383   0.000  0.00  0.00    -0.019 A 
ATOM     28  C   UNL     1       0.315   5.919   0.000  0.00  0.00    +0.003 A 
ATOM     29  C   UNL     1      -0.985   6.669   0.000  0.00  0.00    +0.010 A 
ENDROOT
BRANCH  16  17
ATOM     17  O   UNL     1       6.091  14.661   0.000  0.00  0.00    -0.391 OA
ATOM     18  H   UNL     1       6.741  15.382   0.000  0.00  0.00    +0.210 HD
ENDBRANCH  16  17
TORSDOF 1