REMARK  Name = 622175
REMARK  3 active torsions:
REMARK  status: ('A' for Active; 'I' for Inactive)
REMARK    1  A    between atoms: N_10  and  C_11
REMARK    2  A    between atoms: C_12  and  C_13
REMARK    3  A    between atoms: C_13  and  O_14
REMARK                            x       y       z     vdW  Elec       q    Type
REMARK                         _______ _______ _______ _____ _____    ______ ____
ROOT
ATOM      1  N   UNL     1      -9.835   4.812   0.000  0.00  0.00    -0.341 N 
ATOM      2  H   UNL     1     -10.688   5.304   0.000  0.00  0.00    +0.144 HD
ATOM      3  H   UNL     1      -8.982   5.304   0.000  0.00  0.00    +0.144 HD
ATOM      4  C   UNL     1      -9.835   3.312   0.000  0.00  0.00    +0.147 A 
ATOM      5  C   UNL     1      -8.536   2.562   0.000  0.00  0.00    +0.148 A 
ATOM      6  N   UNL     1      -7.109   3.026   0.000  0.00  0.00    -0.230 NA
ATOM      7  C   UNL     1      -6.228   1.812   0.000  0.00  0.00    +0.206 A 
ATOM      8  N   UNL     1      -7.109   0.599   0.000  0.00  0.00    -0.283 N 
ATOM     15  C   UNL     1      -8.536   1.062   0.000  0.00  0.00    +0.170 A 
ATOM     16  N   UNL     1      -9.835   0.312   0.000  0.00  0.00    -0.216 NA
ATOM     17  C   UNL     1     -11.134   1.062   0.000  0.00  0.00    +0.225 A 
ATOM     18  N   UNL     1     -11.134   2.562   0.000  0.00  0.00    -0.219 NA
ENDROOT
BRANCH   8   9
ATOM      9  C   UNL     1      -6.646  -0.828   0.000  0.00  0.00    +0.145 C 
ATOM     10  C   UNL     1      -5.179  -1.140   0.000  0.00  0.00    -0.104 C 
ATOM     11  C   UNL     1      -3.712  -1.452   0.000  0.00  0.00    +0.053 C 
BRANCH  11  12
ATOM     12  C   UNL     1      -2.708  -0.337   0.000  0.00  0.00    +0.191 C 
BRANCH  12  13
ATOM     13  O   UNL     1      -1.241  -0.649   0.000  0.00  0.00    -0.390 OA
ATOM     14  H   UNL     1      -0.941  -1.571   0.000  0.00  0.00    +0.210 HD
ENDBRANCH  12  13
ENDBRANCH  11  12
ENDBRANCH   8   9
TORSDOF 3