REMARK  Name = 60548
REMARK  5 active torsions:
REMARK  status: ('A' for Active; 'I' for Inactive)
REMARK    1  A    between atoms: C_1  and  O_11
REMARK    2  A    between atoms: C_2  and  C_9
REMARK    3  A    between atoms: C_3  and  O_10
REMARK    4  A    between atoms: C_4  and  O_8
REMARK    5  A    between atoms: C_4  and  C_9
REMARK                            x       y       z     vdW  Elec       q    Type
REMARK                         _______ _______ _______ _____ _____    ______ ____
ROOT
ATOM      1  C   UNL     1       2.552  -0.053   0.000  0.00  0.00    +0.257 A 
ATOM      4  N   UNL     1       1.753  -1.323   0.000  0.00  0.00    -0.171 NA
ATOM      5  C   UNL     1       0.299  -0.955   0.000  0.00  0.00    +0.227 A 
ATOM      8  C   UNL     1       0.199   0.541   0.000  0.00  0.00    +0.067 A 
ATOM     14  S   UNL     1       1.591   1.099   0.000  0.00  0.00    -0.030 S 
ENDROOT
BRANCH   1   2
ATOM      2  O   UNL     1       4.049   0.047   0.000  0.00  0.00    -0.487 OA
ATOM      3  H   UNL     1       4.570  -0.732   0.000  0.00  0.00    +0.294 HD
ENDBRANCH   1   2
BRANCH   5   6
ATOM      6  O   UNL     1      -0.853  -1.916   0.000  0.00  0.00    -0.492 OA
ATOM      7  H   UNL     1      -1.733  -1.593   0.000  0.00  0.00    +0.294 HD
ENDBRANCH   5   6
BRANCH   8   9
ATOM      9  C   UNL     1      -1.071   1.340   0.000  0.00  0.00    +0.168 C 
BRANCH   9  10
ATOM     10  C   UNL     1      -2.397   0.640   0.000  0.00  0.00    +0.310 C 
ATOM     13  O   UNL     1      -2.454  -0.859   0.000  0.00  0.00    -0.251 OA
BRANCH  10  11
ATOM     11  O   UNL     1      -3.667   1.439   0.000  0.00  0.00    -0.480 OA
ATOM     12  H   UNL     1      -3.631   2.375   0.000  0.00  0.00    +0.295 HD
ENDBRANCH  10  11
ENDBRANCH   9  10
ENDBRANCH   8   9
TORSDOF 5