REMARK  Name = 61910
REMARK  5 active torsions:
REMARK  status: ('A' for Active; 'I' for Inactive)
REMARK    1  A    between atoms: C_6  and  N_16
REMARK    2  A    between atoms: C_7  and  O_15
REMARK    3  A    between atoms: C_9  and  N_16
REMARK    4  A    between atoms: C_10  and  C_17
REMARK    5  A    between atoms: C_11  and  C_18
REMARK                            x       y       z     vdW  Elec       q    Type
REMARK                         _______ _______ _______ _____ _____    ______ ____
ROOT
ATOM      1  N   UNL     1      -2.324  -8.524   0.000  0.00  0.00    -0.198 NA
ATOM      2  C   UNL     1      -1.025  -7.774   0.000  0.00  0.00    +0.298 A 
ATOM      3  C   UNL     1       0.275  -8.524   0.000  0.00  0.00    +0.159 A 
ATOM     14  C   UNL     1       0.275 -10.025   0.000  0.00  0.00    +0.219 A 
ATOM     17  N   UNL     1      -1.025 -10.775   0.000  0.00  0.00    -0.316 N 
ATOM     18  H   UNL     1      -1.025 -12.275   0.000  0.00  0.00    +0.170 HD
ATOM     19  O   UNL     1      -1.025  -6.274   0.000  0.00  0.00    -0.264 OA
ATOM     20  C   UNL     1      -2.324 -10.025   0.000  0.00  0.00    +0.203 A 
ENDROOT
BRANCH   3   4
ATOM      4  N   UNL     1       1.574  -7.774   0.000  0.00  0.00    -0.306 N 
ATOM      5  H   UNL     1       2.426  -8.267   0.000  0.00  0.00    +0.152 HD
BRANCH   4   6
ATOM      6  C   UNL     1       1.574  -6.274   0.000  0.00  0.00    +0.032 A 
ATOM      7  C   UNL     1       2.873  -5.524   0.000  0.00  0.00    +0.023 A 
ATOM      8  C   UNL     1       2.873  -4.024   0.000  0.00  0.00    +0.005 A 
ATOM      9  C   UNL     1       1.574  -3.275   0.000  0.00  0.00    -0.047 A 
ATOM     10  C   UNL     1       1.574  -1.775   0.000  0.00  0.00    +0.044 C 
ATOM     11  C   UNL     1       0.275  -4.024   0.000  0.00  0.00    -0.046 A 
ATOM     12  C   UNL     1      -1.025  -3.275   0.000  0.00  0.00    +0.044 C 
ATOM     13  C   UNL     1       0.275  -5.524   0.000  0.00  0.00    +0.027 A 
ENDBRANCH   4   6
ENDBRANCH   3   4
BRANCH  14  15
ATOM     15  O   UNL     1       1.574 -10.775   0.000  0.00  0.00    -0.492 OA
ATOM     16  H   UNL     1       1.574 -11.711   0.000  0.00  0.00    +0.294 HD
ENDBRANCH  14  15
TORSDOF 3