REMARK  Name = 59430
REMARK  5 active torsions:
REMARK  status: ('A' for Active; 'I' for Inactive)
REMARK    1  A    between atoms: C_7  and  N_19
REMARK    2  A    between atoms: C_8  and  O_18
REMARK    3  A    between atoms: C_11  and  N_19
REMARK    4  A    between atoms: C_15  and  S_16
REMARK    5  A    between atoms: S_16  and  C_17
REMARK                            x       y       z     vdW  Elec       q    Type
REMARK                         _______ _______ _______ _____ _____    ______ ____
ROOT
ATOM      1  N   UNL     1      -2.324  -8.524   0.000  0.00  0.00    -0.183 NA
ATOM      2  C   UNL     1      -1.025  -7.774   0.000  0.00  0.00    +0.299 A 
ATOM      3  C   UNL     1       0.275  -8.524   0.000  0.00  0.00    +0.159 A 
ATOM     13  C   UNL     1       0.275 -10.025   0.000  0.00  0.00    +0.219 A 
ATOM     16  N   UNL     1      -1.025 -10.775   0.000  0.00  0.00    -0.304 N 
ATOM     17  H   UNL     1      -1.025 -12.275   0.000  0.00  0.00    +0.171 HD
ATOM     18  O   UNL     1      -1.025  -6.274   0.000  0.00  0.00    -0.264 OA
ATOM     19  C   UNL     1      -2.324 -10.025   0.000  0.00  0.00    +0.172 A 
ENDROOT
BRANCH   3   4
ATOM      4  N   UNL     1       1.574  -7.774   0.000  0.00  0.00    -0.306 N 
ATOM      5  H   UNL     1       2.426  -8.267   0.000  0.00  0.00    +0.152 HD
BRANCH   4   6
ATOM      6  C   UNL     1       1.574  -6.274   0.000  0.00  0.00    +0.033 A 
ATOM      7  C   UNL     1       2.873  -5.524   0.000  0.00  0.00    +0.043 A 
ATOM      8  C   UNL     1       2.873  -4.024   0.000  0.00  0.00    +0.043 A 
ATOM      9  C   UNL     1       1.574  -3.275   0.000  0.00  0.00    +0.020 A 
ATOM     10  C   UNL     1       0.275  -4.024   0.000  0.00  0.00    +0.003 A 
ATOM     11 CL   UNL     1       4.172  -3.275   0.000  0.00  0.00    -0.083 Cl
ATOM     12  C   UNL     1       0.275  -5.524   0.000  0.00  0.00    +0.023 A 
ENDBRANCH   4   6
ENDBRANCH   3   4
BRANCH  13  14
ATOM     14  O   UNL     1       1.574 -10.775   0.000  0.00  0.00    -0.492 OA
ATOM     15  H   UNL     1       1.574 -11.711   0.000  0.00  0.00    +0.294 HD
ENDBRANCH  13  14
BRANCH  19  20
ATOM     20  S   UNL     1      -3.623 -10.775   0.000  0.00  0.00    -0.091 S 
ATOM     21  C   UNL     1      -4.922 -10.025   0.000  0.00  0.00    +0.093 C 
ENDBRANCH  19  20
TORSDOF 4