REMARK  Name = 603071
REMARK  4 active torsions:
REMARK  status: ('A' for Active; 'I' for Inactive)
REMARK    1  A    between atoms: C_4  and  N_27
REMARK    2  A    between atoms: C_17  and  C_24
REMARK    3  A    between atoms: C_17  and  O_26
REMARK    4  A    between atoms: C_24  and  C_25
REMARK                            x       y       z     vdW  Elec       q    Type
REMARK                         _______ _______ _______ _____ _____    ______ ____
ROOT
ATOM      1  C   UNL     1     -15.299   1.229   0.000  0.00  0.00    +0.023 A 
ATOM      2  C   UNL     1     -14.071   2.091   0.000  0.00  0.00    +0.034 A 
ATOM      6  C   UNL     1     -12.711   1.459   0.000  0.00  0.00    +0.021 A 
ATOM      7  C   UNL     1     -11.483   2.321   0.000  0.00  0.00    +0.019 A 
ATOM      8  C   UNL     1     -10.123   1.690   0.000  0.00  0.00    +0.000 A 
ATOM      9  C   UNL     1      -9.990   0.196   0.000  0.00  0.00    +0.093 A 
ATOM     10  C   UNL     1      -8.528  -0.139   0.000  0.00  0.00    +0.071 A 
ATOM     11  C   UNL     1      -7.798  -1.450   0.000  0.00  0.00    +0.035 A 
ATOM     12  C   UNL     1      -6.299  -1.474   0.000  0.00  0.00    +0.008 A 
ATOM     13  C   UNL     1      -5.528  -0.187   0.000  0.00  0.00    +0.061 A 
ATOM     14  C   UNL     1      -4.028  -0.211   0.000  0.00  0.00    +0.273 C 
ATOM     15  O   UNL     1      -3.299  -1.522   0.000  0.00  0.00    -0.457 OA
ATOM     16  C   UNL     1      -4.069  -2.809   0.000  0.00  0.00    +0.344 C 
ATOM     17  O   UNL     1      -3.340  -4.119   0.000  0.00  0.00    -0.247 OA
ATOM     18  C   UNL     1      -6.258   1.124   0.000  0.00  0.00    +0.259 A 
ATOM     19  O   UNL     1      -5.487   2.411   0.000  0.00  0.00    -0.267 OA
ATOM     20  C   UNL     1      -5.569  -2.785   0.000  0.00  0.00    +0.188 C 
ATOM     25  N   UNL     1      -7.757   1.148   0.000  0.00  0.00    -0.302 N 
ATOM     26  N   UNL     1     -11.217  -0.667   0.000  0.00  0.00    -0.245 NA
ATOM     27  C   UNL     1      -8.743   2.278   0.000  0.00  0.00    +0.162 C 
ATOM     28  C   UNL     1     -12.578  -0.035   0.000  0.00  0.00    +0.073 A 
ATOM     29  C   UNL     1     -13.805  -0.897   0.000  0.00  0.00    +0.028 A 
ATOM     30  C   UNL     1     -15.166  -0.265   0.000  0.00  0.00    +0.004 A 
ENDROOT
BRANCH   2   3
ATOM      3  N   UNL     1     -14.204   3.585   0.000  0.00  0.00    -0.357 N 
ATOM      4  H   UNL     1     -15.097   4.000   0.000  0.00  0.00    +0.142 HD
ATOM      5  H   UNL     1     -13.399   4.151   0.000  0.00  0.00    +0.142 HD
ENDBRANCH   2   3
BRANCH  20  21
ATOM     21  O   UNL     1      -5.332  -4.266   0.000  0.00  0.00    -0.373 OA
ATOM     22  H   UNL     1      -6.085  -4.877   0.000  0.00  0.00    +0.211 HD
ENDBRANCH  20  21
BRANCH  20  23
ATOM     23  C   UNL     1      -6.987  -3.275   0.000  0.00  0.00    +0.048 C 
ATOM     24  C   UNL     1      -8.120  -2.293   0.000  0.00  0.00    +0.007 C 
ENDBRANCH  20  23
TORSDOF 3