REMARK  Name = 60013
REMARK  2 active torsions:
REMARK  status: ('A' for Active; 'I' for Inactive)
REMARK    1  A    between atoms: C_7  and  N_20
REMARK    2  A    between atoms: C_15  and  N_19
REMARK                            x       y       z     vdW  Elec       q    Type
REMARK                         _______ _______ _______ _____ _____    ______ ____
ROOT
ATOM      1 CL   UNL     1      -6.120  -8.899   0.000  0.00  0.00    -0.081 Cl
ATOM      2  C   UNL     1      -6.120  -7.399   0.000  0.00  0.00    +0.073 A 
ATOM      3  C   UNL     1      -7.419  -6.649   0.000  0.00  0.00    +0.044 A 
ATOM      7  C   UNL     1      -7.419  -5.149   0.000  0.00  0.00    +0.025 A 
ATOM      8  C   UNL     1      -6.120  -4.399   0.000  0.00  0.00    +0.014 A 
ATOM      9  C   UNL     1      -4.821  -5.149   0.000  0.00  0.00    +0.035 A 
ATOM     10  C   UNL     1      -3.522  -4.399   0.000  0.00  0.00    +0.196 C 
ATOM     11  C   UNL     1      -2.223  -5.149   0.000  0.00  0.00    +0.053 A 
ATOM     12  C   UNL     1      -2.223  -6.649   0.000  0.00  0.00    +0.035 A 
ATOM     13  C   UNL     1      -0.924  -7.399   0.000  0.00  0.00    +0.014 A 
ATOM     14  C   UNL     1       0.375  -6.649   0.000  0.00  0.00    +0.025 A 
ATOM     15  C   UNL     1       0.375  -5.149   0.000  0.00  0.00    +0.044 A 
ATOM     19  C   UNL     1      -3.522  -7.399   0.000  0.00  0.00    +0.196 C 
ATOM     20  O   UNL     1      -3.522  -8.899   0.000  0.00  0.00    -0.287 OA
ATOM     21  C   UNL     1      -0.924  -4.399   0.000  0.00  0.00    +0.073 A 
ATOM     22 CL   UNL     1      -0.924  -2.900   0.000  0.00  0.00    -0.081 Cl
ATOM     23  O   UNL     1      -3.522  -2.900   0.000  0.00  0.00    -0.287 OA
ATOM     24  C   UNL     1      -4.821  -6.649   0.000  0.00  0.00    +0.053 A 
ENDROOT
BRANCH   3   4
ATOM      4  N   UNL     1      -8.718  -7.399   0.000  0.00  0.00    -0.357 N 
ATOM      5  H   UNL     1      -8.718  -8.384   0.000  0.00  0.00    +0.142 HD
ATOM      6  H   UNL     1      -9.571  -6.907   0.000  0.00  0.00    +0.142 HD
ENDBRANCH   3   4
BRANCH  15  16
ATOM     16  N   UNL     1       1.674  -4.399   0.000  0.00  0.00    -0.357 N 
ATOM     17  H   UNL     1       1.674  -3.415   0.000  0.00  0.00    +0.142 HD
ATOM     18  H   UNL     1       2.527  -4.892   0.000  0.00  0.00    +0.142 HD
ENDBRANCH  15  16
TORSDOF 2