REMARK  Name = 61929
REMARK  1 active torsions:
REMARK  status: ('A' for Active; 'I' for Inactive)
REMARK    1  A    between atoms: C_13  and  O_14
REMARK                            x       y       z     vdW  Elec       q    Type
REMARK                         _______ _______ _______ _____ _____    ______ ____
ROOT
ATOM      1 CL   UNL     1      -5.477  -7.248   0.000  0.00  0.00    -0.085 Cl
ATOM      2  C   UNL     1      -4.796  -5.912   0.000  0.00  0.00    +0.066 C 
ATOM      3  C   UNL     1      -5.260  -4.485   0.000  0.00  0.00    +0.066 C 
ATOM      4  C   UNL     1      -3.833  -4.021   0.000  0.00  0.00    +0.175 C 
ATOM      5  C   UNL     1      -2.620  -3.140   0.000  0.00  0.00    +0.206 C 
ATOM      6  C   UNL     1      -1.406  -4.021   0.000  0.00  0.00    +0.125 C 
ATOM      7  C   UNL     1      -1.870  -5.448   0.000  0.00  0.00    +0.144 C 
ATOM     10 CL   UNL     1       0.020  -3.558   0.000  0.00  0.00    -0.076 Cl
ATOM     11  O   UNL     1      -2.620  -1.640   0.000  0.00  0.00    -0.289 OA
ATOM     12 CL   UNL     1      -4.514  -2.685   0.000  0.00  0.00    -0.101 Cl
ATOM     13 CL   UNL     1      -6.596  -3.804   0.000  0.00  0.00    -0.085 Cl
ATOM     14  C   UNL     1      -3.370  -5.448   0.000  0.00  0.00    +0.170 C 
ATOM     15 CL   UNL     1      -3.135  -6.930   0.000  0.00  0.00    -0.101 Cl
ENDROOT
BRANCH   7   8
ATOM      8  O   UNL     1      -0.988  -6.662   0.000  0.00  0.00    -0.507 OA
ATOM      9  H   UNL     1      -1.369  -7.518   0.000  0.00  0.00    +0.292 HD
ENDBRANCH   7   8
TORSDOF 1