REMARK  Name = 607097
REMARK  8 active torsions:
REMARK  status: ('A' for Active; 'I' for Inactive)
REMARK    1  A    between atoms: C_5  and  O_22
REMARK    2  A    between atoms: C_10  and  C_20
REMARK    3  A    between atoms: N_12  and  C_17
REMARK    4  A    between atoms: C_14  and  C_18
REMARK    5  A    between atoms: C_15  and  C_23
REMARK    6  A    between atoms: C_20  and  O_21
REMARK    7  A    between atoms: O_22  and  C_26
REMARK    8  A    between atoms: C_23  and  O_24
REMARK                            x       y       z     vdW  Elec       q    Type
REMARK                         _______ _______ _______ _____ _____    ______ ____
ROOT
ATOM      1  C   UNL     1      -6.309  -6.009   0.000  0.00  0.00    -0.038 A 
ATOM      2  C   UNL     1      -5.010  -5.259   0.000  0.00  0.00    +0.056 C 
ATOM      3  C   UNL     1      -3.711  -6.009   0.000  0.00  0.00    +0.081 C 
ATOM      4  C   UNL     1      -2.412  -5.259   0.000  0.00  0.00    +0.088 C 
ATOM      5  C   UNL     1      -0.920  -5.102   0.000  0.00  0.00    +0.118 C 
ATOM     10  C   UNL     1      -0.310  -6.472   0.000  0.00  0.00    +0.037 C 
ATOM     11  C   UNL     1      -1.113  -7.509   0.000  0.00  0.00    +0.089 C 
ATOM     12  C   UNL     1      -2.412  -8.259   0.000  0.00  0.00    +0.178 C 
ATOM     15  N   UNL     1      -1.113  -6.009   0.000  0.00  0.00    -0.295 NA
ATOM     16  C   UNL     1       0.296  -5.496   0.000  0.00  0.00    +0.105 C 
ATOM     17  N   UNL     1      -3.711  -7.509   0.000  0.00  0.00    -0.272 NA
ATOM     18  C   UNL     1      -5.010  -8.259   0.000  0.00  0.00    +0.118 C 
ATOM     22  C   UNL     1      -6.309  -7.509   0.000  0.00  0.00    +0.017 A 
ATOM     23  C   UNL     1      -7.608  -8.259   0.000  0.00  0.00    +0.125 A 
ATOM     26  C   UNL     1      -8.907  -7.509   0.000  0.00  0.00    +0.046 A 
ATOM     27  C   UNL     1      -8.907  -6.009   0.000  0.00  0.00    +0.004 A 
ATOM     28  C   UNL     1      -7.608  -5.259   0.000  0.00  0.00    +0.004 A 
ENDROOT
BRANCH   5   6
ATOM      6  C   UNL     1      -0.170  -3.803   0.000  0.00  0.00    +0.309 C 
ATOM      7  O   UNL     1      -0.920  -2.504   0.000  0.00  0.00    -0.251 OA
BRANCH   6   8
ATOM      8  O   UNL     1       1.330  -3.803   0.000  0.00  0.00    -0.480 OA
ATOM      9  H   UNL     1       1.798  -4.614   0.000  0.00  0.00    +0.295 HD
ENDBRANCH   6   8
ENDBRANCH   5   6
BRANCH  12  13
ATOM     13  C   UNL     1      -2.412  -9.759   0.000  0.00  0.00    +0.083 C 
ATOM     14  N   UNL     1      -2.412 -11.259   0.000  0.00  0.00    -0.195 NA
ENDBRANCH  12  13
BRANCH  23  24
ATOM     24  O   UNL     1      -7.608  -9.759   0.000  0.00  0.00    -0.495 OA
ATOM     25  C   UNL     1      -8.907 -10.509   0.000  0.00  0.00    +0.277 C 
ENDBRANCH  23  24
BRANCH  18  19
ATOM     19  C   UNL     1      -5.010  -9.759   0.000  0.00  0.00    +0.179 C 
BRANCH  19  20
ATOM     20  O   UNL     1      -3.711 -10.509   0.000  0.00  0.00    -0.393 OA
ATOM     21  H   UNL     1      -3.711 -11.479   0.000  0.00  0.00    +0.209 HD
ENDBRANCH  19  20
ENDBRANCH  18  19
TORSDOF 6