REMARK  Name = 623638
REMARK  10 active torsions:
REMARK  status: ('A' for Active; 'I' for Inactive)
REMARK    1  A    between atoms: N_7  and  C_8
REMARK    2  A    between atoms: C_9  and  C_10
REMARK    3  A    between atoms: C_10  and  C_19
REMARK    4  A    between atoms: C_10  and  C_20
REMARK    5  A    between atoms: C_11  and  C_24
REMARK    6  A    between atoms: C_12  and  C_24
REMARK    7  A    between atoms: C_15  and  C_18
REMARK    8  A    between atoms: C_20  and  O_21
REMARK    9  A    between atoms: O_21  and  C_22
REMARK   10  A    between atoms: C_22  and  C_23
REMARK                            x       y       z     vdW  Elec       q    Type
REMARK                         _______ _______ _______ _____ _____    ______ ____
ROOT
ATOM      1  C   UNL     1      -1.933  -1.337   0.000  0.00  0.00    +0.050 A 
ATOM      2  N   UNL     1      -0.714  -2.212   0.000  0.00  0.00    -0.345 N 
ATOM      3  C   UNL     1       0.494  -1.323   0.000  0.00  0.00    +0.044 A 
ATOM      4  C   UNL     1       0.022   0.101   0.000  0.00  0.00    +0.051 A 
ATOM     21  C   UNL     1      -0.705  -3.712   0.000  0.00  0.00    +0.149 C 
ATOM     22  C   UNL     1      -3.398  -1.658   0.000  0.00  0.00    +0.026 A 
ATOM     23  C   UNL     1      -4.408  -0.549   0.000  0.00  0.00    +0.002 A 
ATOM     24  C   UNL     1      -3.953   0.880   0.000  0.00  0.00    +0.001 A 
ATOM     25  C   UNL     1      -2.488   1.201   0.000  0.00  0.00    +0.011 A 
ATOM     26  C   UNL     1      -1.478   0.092   0.000  0.00  0.00    +0.011 A 
ENDROOT
BRANCH   4   5
ATOM      5  C   UNL     1       0.897   1.320   0.000  0.00  0.00    +0.197 C 
ATOM      6  O   UNL     1       2.389   1.172   0.000  0.00  0.00    -0.287 OA
BRANCH   5   7
ATOM      7  C   UNL     1       0.279   2.686   0.000  0.00  0.00    +0.040 A 
ATOM      8  C   UNL     1       1.153   3.905   0.000  0.00  0.00    +0.015 A 
ATOM      9  C   UNL     1       0.535   5.272   0.000  0.00  0.00    +0.024 A 
ATOM     10  C   UNL     1      -0.958   5.420   0.000  0.00  0.00    +0.038 A 
ATOM     11  C   UNL     1      -1.576   6.786   0.000  0.00  0.00    +0.065 C 
ATOM     12  N   UNL     1      -1.833   4.201   0.000  0.00  0.00    -0.259 NA
ATOM     13  C   UNL     1      -1.214   2.834   0.000  0.00  0.00    +0.122 A 
ENDBRANCH   5   7
ENDBRANCH   4   5
BRANCH   3  14
ATOM     14  C   UNL     1       1.924  -1.778   0.000  0.00  0.00    +0.142 C 
ATOM     20  C   UNL     1       3.032  -0.768   0.000  0.00  0.00    +0.026 C 
BRANCH  14  15
ATOM     15  C   UNL     1       2.244  -3.243   0.000  0.00  0.00    +0.316 C 
ATOM     16  O   UNL     1       1.136  -4.254   0.000  0.00  0.00    -0.250 OA
BRANCH  15  17
ATOM     17  O   UNL     1       3.674  -3.698   0.000  0.00  0.00    -0.464 OA
BRANCH  17  18
ATOM     18  C   UNL     1       3.994  -5.164   0.000  0.00  0.00    +0.229 C 
ATOM     19  C   UNL     1       2.886  -6.174   0.000  0.00  0.00    +0.048 C 
ENDBRANCH  17  18
ENDBRANCH  15  17
ENDBRANCH  14  15
ENDBRANCH   3  14
TORSDOF 6