REMARK  Name = 60423
REMARK  9 active torsions:
REMARK  status: ('A' for Active; 'I' for Inactive)
REMARK    1  A    between atoms: C_3  and  O_18
REMARK    2  A    between atoms: C_6  and  N_17
REMARK    3  A    between atoms: C_8  and  C_14
REMARK    4  A    between atoms: C_10  and  N_17
REMARK    5  A    between atoms: C_14  and  O_16
REMARK    6  A    between atoms: O_18  and  C_19
REMARK    7  A    between atoms: C_19  and  C_20
REMARK    8  A    between atoms: C_20  and  C_21
REMARK    9  A    between atoms: C_21  and  C_22
REMARK                            x       y       z     vdW  Elec       q    Type
REMARK                         _______ _______ _______ _____ _____    ______ ____
ROOT
ATOM     11  N   UNL     1     -11.142  -5.250   0.000  0.00  0.00    -0.313 N 
ATOM     12  H   UNL     1     -11.228  -6.231   0.000  0.00  0.00    +0.152 HD
ENDROOT
BRANCH  11  10
ATOM      1 CL   UNL     1     -12.919  -0.367   0.000  0.00  0.00    -0.083 Cl
ATOM      2  C   UNL     1     -13.180  -1.844   0.000  0.00  0.00    +0.043 A 
ATOM      3  C   UNL     1     -14.589  -2.357   0.000  0.00  0.00    +0.021 A 
ATOM      4  C   UNL     1     -14.850  -3.835   0.000  0.00  0.00    +0.018 A 
ATOM      5  C   UNL     1     -13.701  -4.799   0.000  0.00  0.00    +0.080 A 
ATOM     10  C   UNL     1     -12.291  -4.286   0.000  0.00  0.00    +0.047 A 
ATOM     24  C   UNL     1     -12.031  -2.809   0.000  0.00  0.00    +0.044 A 
BRANCH   5   6
ATOM      6  C   UNL     1     -13.961  -6.276   0.000  0.00  0.00    +0.339 C 
ATOM      9  O   UNL     1     -15.371  -6.789   0.000  0.00  0.00    -0.245 OA
BRANCH   6   7
ATOM      7  O   UNL     1     -12.812  -7.240   0.000  0.00  0.00    -0.477 OA
ATOM      8  H   UNL     1     -12.975  -8.163   0.000  0.00  0.00    +0.295 HD
ENDBRANCH   6   7
ENDBRANCH   5   6
ENDBRANCH  11  10
BRANCH  11  13
ATOM     13  C   UNL     1      -9.843  -4.500   0.000  0.00  0.00    +0.050 A 
ATOM     14  C   UNL     1      -9.843  -3.000   0.000  0.00  0.00    +0.137 A 
ATOM     15  N   UNL     1      -8.544  -2.250   0.000  0.00  0.00    -0.219 NA
ATOM     16  C   UNL     1      -7.245  -3.000   0.000  0.00  0.00    +0.215 A 
ATOM     22  C   UNL     1      -7.245  -4.500   0.000  0.00  0.00    +0.069 A 
ATOM     23  C   UNL     1      -8.544  -5.250   0.000  0.00  0.00    +0.030 A 
BRANCH  16  17
ATOM     17  O   UNL     1      -5.946  -2.250   0.000  0.00  0.00    -0.476 OA
BRANCH  17  18
ATOM     18  C   UNL     1      -4.647  -3.000   0.000  0.00  0.00    +0.231 C 
BRANCH  18  19
ATOM     19  C   UNL     1      -3.348  -2.250   0.000  0.00  0.00    +0.041 C 
BRANCH  19  20
ATOM     20  C   UNL     1      -2.049  -3.000   0.000  0.00  0.00    -0.000 C 
ATOM     21  C   UNL     1      -0.750  -2.250   0.000  0.00  0.00    +0.004 C 
ENDBRANCH  19  20
ENDBRANCH  18  19
ENDBRANCH  17  18
ENDBRANCH  16  17
ENDBRANCH  11  13
TORSDOF 8