REMARK  Name = 60037
REMARK  8 active torsions:
REMARK  status: ('A' for Active; 'I' for Inactive)
REMARK    1  A    between atoms: C_1  and  N_16
REMARK    2  A    between atoms: C_6  and  N_7
REMARK    3  A    between atoms: N_8  and  C_10
REMARK    4  A    between atoms: C_13  and  O_15
REMARK    5  A    between atoms: O_15  and  C_18
REMARK    6  A    between atoms: C_18  and  C_19
REMARK    7  A    between atoms: C_19  and  C_20
REMARK    8  A    between atoms: C_20  and  C_21
REMARK                            x       y       z     vdW  Elec       q    Type
REMARK                         _______ _______ _______ _____ _____    ______ ____
ROOT
ATOM      8  N   UNL     1      -5.149 -10.767   0.000  0.00  0.00    -0.146 NA
ATOM      9  N   UNL     1      -3.650 -10.767   0.000  0.00  0.00    -0.148 NA
ENDROOT
BRANCH   8   7
ATOM      1  C   UNL     1      -7.399  -6.870   0.000  0.00  0.00    +0.118 A 
ATOM      5  C   UNL     1      -5.899  -6.870   0.000  0.00  0.00    +0.045 A 
ATOM      6  C   UNL     1      -5.149  -8.169   0.000  0.00  0.00    +0.036 A 
ATOM      7  C   UNL     1      -5.899  -9.468   0.000  0.00  0.00    +0.126 A 
ATOM     21  C   UNL     1      -7.399  -9.468   0.000  0.00  0.00    +0.146 A 
ATOM     22  N   UNL     1      -8.149 -10.767   0.000  0.00  0.00    -0.341 N 
ATOM     23  H   UNL     1      -7.657 -11.620   0.000  0.00  0.00    +0.144 HD
ATOM     24  H   UNL     1      -9.134 -10.767   0.000  0.00  0.00    +0.144 HD
ATOM     25  N   UNL     1      -8.149  -8.169   0.000  0.00  0.00    -0.216 NA
BRANCH   1   2
ATOM      2  N   UNL     1      -8.149  -5.571   0.000  0.00  0.00    -0.343 N 
ATOM      3  H   UNL     1      -9.134  -5.571   0.000  0.00  0.00    +0.144 HD
ATOM      4  H   UNL     1      -7.657  -4.719   0.000  0.00  0.00    +0.144 HD
ENDBRANCH   1   2
ENDBRANCH   8   7
BRANCH   9  10
ATOM     10  C   UNL     1      -2.900  -9.468   0.000  0.00  0.00    +0.104 A 
ATOM     11  C   UNL     1      -1.400  -9.468   0.000  0.00  0.00    +0.036 A 
ATOM     12  C   UNL     1      -0.649  -8.169   0.000  0.00  0.00    +0.069 A 
ATOM     13  C   UNL     1      -1.400  -6.870   0.000  0.00  0.00    +0.215 A 
ATOM     19  N   UNL     1      -2.900  -6.870   0.000  0.00  0.00    -0.219 NA
ATOM     20  C   UNL     1      -3.650  -8.169   0.000  0.00  0.00    +0.144 A 
BRANCH  13  14
ATOM     14  O   UNL     1      -0.649  -5.571   0.000  0.00  0.00    -0.476 OA
BRANCH  14  15
ATOM     15  C   UNL     1       0.851  -5.571   0.000  0.00  0.00    +0.231 C 
BRANCH  15  16
ATOM     16  C   UNL     1       1.601  -4.272   0.000  0.00  0.00    +0.041 C 
BRANCH  16  17
ATOM     17  C   UNL     1       0.851  -2.973   0.000  0.00  0.00    -0.000 C 
ATOM     18  C   UNL     1      -0.649  -2.973   0.000  0.00  0.00    +0.004 C 
ENDBRANCH  16  17
ENDBRANCH  15  16
ENDBRANCH  14  15
ENDBRANCH  13  14
ENDBRANCH   9  10
TORSDOF 7