REMARK  Name = 62129
REMARK  1 active torsions:
REMARK  status: ('A' for Active; 'I' for Inactive)
REMARK    1  A    between atoms: C_12  and  O_15
REMARK                            x       y       z     vdW  Elec       q    Type
REMARK                         _______ _______ _______ _____ _____    ______ ____
ROOT
ATOM      1  N   UNL     1      -1.035  -2.888   0.000  0.00  0.00    -0.344 N 
ATOM      2  H   UNL     1      -1.917  -1.674   0.000  0.00  0.00    +0.167 HD
ATOM      3  C   UNL     1      -1.499  -4.314   0.000  0.00  0.00    +0.074 A 
ATOM      4  C   UNL     1      -2.869  -4.925   0.000  0.00  0.00    +0.008 A 
ATOM      5  C   UNL     1      -4.083  -4.043   0.000  0.00  0.00    +0.014 A 
ATOM      6  C   UNL     1      -5.453  -4.653   0.000  0.00  0.00    +0.046 A 
ATOM      7  C   UNL     1      -5.610  -6.145   0.000  0.00  0.00    +0.117 A 
ATOM     10  C   UNL     1      -4.396  -7.027   0.000  0.00  0.00    +0.054 A 
ATOM     11  C   UNL     1      -3.026  -6.416   0.000  0.00  0.00    -0.012 A 
ATOM     12  C   UNL     1      -1.812  -7.298   0.000  0.00  0.00    +0.011 A 
ATOM     13  C   UNL     1      -0.442  -6.688   0.000  0.00  0.00    +0.030 A 
ATOM     14  C   UNL     1      -0.285  -5.196   0.000  0.00  0.00    +0.089 A 
ATOM     15  N   UNL     1       0.928  -4.314   0.000  0.00  0.00    -0.236 NA
ATOM     16  C   UNL     1       0.465  -2.888   0.000  0.00  0.00    +0.197 A 
ENDROOT
BRANCH   7   8
ATOM      8  O   UNL     1      -6.980  -6.755   0.000  0.00  0.00    -0.507 OA
ATOM      9  H   UNL     1      -7.738  -6.204   0.000  0.00  0.00    +0.292 HD
ENDBRANCH   7   8
TORSDOF 1