REMARK  Name = 61610
REMARK  6 active torsions:
REMARK  status: ('A' for Active; 'I' for Inactive)
REMARK    1  A    between atoms: C_7  and  C_9
REMARK    2  A    between atoms: C_11  and  N_42
REMARK    3  A    between atoms: C_15  and  C_17
REMARK    4  A    between atoms: C_20  and  C_37
REMARK    5  A    between atoms: C_29  and  C_31
REMARK    6  A    between atoms: C_33  and  N_41
REMARK                            x       y       z     vdW  Elec       q    Type
REMARK                         _______ _______ _______ _____ _____    ______ ____
ROOT
ATOM     16  C   UNL     1     -13.603  -2.049   0.000  0.00  0.00    +0.037 A 
ATOM     17  C   UNL     1     -12.853  -0.750   0.000  0.00  0.00    +0.014 A 
ATOM     18  C   UNL     1     -11.353  -0.750   0.000  0.00  0.00    +0.014 A 
ATOM     19  C   UNL     1     -10.603  -2.049   0.000  0.00  0.00    +0.037 A 
ATOM     40  C   UNL     1     -11.353  -3.348   0.000  0.00  0.00    +0.014 A 
ATOM     41  C   UNL     1     -12.853  -3.348   0.000  0.00  0.00    +0.014 A 
ENDROOT
BRANCH  16  15
ATOM     13  N   UNL     1     -15.853  -3.348   0.000  0.00  0.00    -0.281 N 
ATOM     14  H   UNL     1     -15.360  -4.201   0.000  0.00  0.00    +0.155 HD
ATOM     15  C   UNL     1     -15.103  -2.049   0.000  0.00  0.00    +0.248 C 
ATOM     42  O   UNL     1     -15.853  -0.750   0.000  0.00  0.00    -0.270 OA
BRANCH  13  12
ATOM      8  C   UNL     1     -19.603  -4.647   0.000  0.00  0.00    +0.019 A 
ATOM      9  C   UNL     1     -20.353  -3.348   0.000  0.00  0.00    +0.011 A 
ATOM     10  C   UNL     1     -19.603  -2.049   0.000  0.00  0.00    +0.002 A 
ATOM     11  C   UNL     1     -18.103  -2.049   0.000  0.00  0.00    +0.023 A 
ATOM     12  C   UNL     1     -17.353  -3.348   0.000  0.00  0.00    +0.034 A 
ATOM     43  C   UNL     1     -18.103  -4.647   0.000  0.00  0.00    +0.034 A 
BRANCH   8   5
ATOM      1  C   UNL     1     -23.455  -9.820   0.000  0.00  0.00    +0.002 A 
ATOM      2  C   UNL     1     -23.455  -8.320   0.000  0.00  0.00    +0.030 A 
ATOM      3  C   UNL     1     -22.156  -7.570   0.000  0.00  0.00    +0.089 A 
ATOM      4  N   UNL     1     -21.845  -6.103   0.000  0.00  0.00    -0.228 NA
ATOM      5  C   UNL     1     -20.353  -5.946   0.000  0.00  0.00    +0.139 A 
ATOM      6  N   UNL     1     -19.743  -7.316   0.000  0.00  0.00    -0.338 N 
ATOM      7  H   UNL     1     -18.780  -7.521   0.000  0.00  0.00    +0.167 HD
ATOM     44  C   UNL     1     -20.857  -8.320   0.000  0.00  0.00    +0.066 A 
ATOM     45  C   UNL     1     -20.857  -9.820   0.000  0.00  0.00    +0.028 A 
ATOM     46  C   UNL     1     -22.156 -10.570   0.000  0.00  0.00    +0.002 A 
ENDBRANCH   8   5
ENDBRANCH  13  12
ENDBRANCH  16  15
BRANCH  19  20
ATOM     20  C   UNL     1      -9.103  -2.049   0.000  0.00  0.00    +0.248 C 
ATOM     21  N   UNL     1      -8.353  -3.348   0.000  0.00  0.00    -0.281 N 
ATOM     22  H   UNL     1      -8.845  -4.201   0.000  0.00  0.00    +0.155 HD
ATOM     39  O   UNL     1      -8.353  -0.750   0.000  0.00  0.00    -0.270 OA
BRANCH  21  23
ATOM     23  C   UNL     1      -6.853  -3.348   0.000  0.00  0.00    +0.034 A 
ATOM     24  C   UNL     1      -6.103  -2.049   0.000  0.00  0.00    +0.023 A 
ATOM     25  C   UNL     1      -4.603  -2.049   0.000  0.00  0.00    +0.002 A 
ATOM     26  C   UNL     1      -3.853  -3.348   0.000  0.00  0.00    +0.011 A 
ATOM     27  C   UNL     1      -4.603  -4.647   0.000  0.00  0.00    +0.019 A 
ATOM     38  C   UNL     1      -6.103  -4.647   0.000  0.00  0.00    +0.034 A 
BRANCH  27  28
ATOM     28  C   UNL     1      -3.853  -5.946   0.000  0.00  0.00    +0.139 A 
ATOM     29  N   UNL     1      -4.463  -7.316   0.000  0.00  0.00    -0.338 N 
ATOM     30  H   UNL     1      -5.426  -7.521   0.000  0.00  0.00    +0.167 HD
ATOM     31  C   UNL     1      -3.348  -8.320   0.000  0.00  0.00    +0.066 A 
ATOM     32  C   UNL     1      -2.049  -7.570   0.000  0.00  0.00    +0.089 A 
ATOM     33  C   UNL     1      -0.750  -8.320   0.000  0.00  0.00    +0.030 A 
ATOM     34  C   UNL     1      -0.750  -9.820   0.000  0.00  0.00    +0.002 A 
ATOM     35  C   UNL     1      -2.049 -10.570   0.000  0.00  0.00    +0.002 A 
ATOM     36  C   UNL     1      -3.348  -9.820   0.000  0.00  0.00    +0.028 A 
ATOM     37  N   UNL     1      -2.361  -6.103   0.000  0.00  0.00    -0.228 NA
ENDBRANCH  27  28
ENDBRANCH  21  23
ENDBRANCH  19  20
TORSDOF 6