REMARK  Name = 58907
REMARK  5 active torsions:
REMARK  status: ('A' for Active; 'I' for Inactive)
REMARK    1  A    between atoms: N_6  and  C_13
REMARK    2  A    between atoms: C_13  and  C_14
REMARK    3  A    between atoms: C_14  and  C_15
REMARK    4  A    between atoms: C_15  and  C_16
REMARK    5  A    between atoms: C_16  and  C_17
REMARK                            x       y       z     vdW  Elec       q    Type
REMARK                         _______ _______ _______ _____ _____    ______ ____
ROOT
ATOM      1  N   UNL     1     -11.559   2.808   0.000  0.00  0.00    -0.207 NA
ATOM      2  C   UNL     1     -10.260   3.558   0.000  0.00  0.00    +0.140 A 
ATOM      3  C   UNL     1      -8.961   2.808   0.000  0.00  0.00    +0.139 A 
ATOM      4  C   UNL     1      -8.961   1.308   0.000  0.00  0.00    +0.143 A 
ATOM      5  N   UNL     1      -7.535   0.844   0.000  0.00  0.00    -0.316 N 
ATOM     11  C   UNL     1      -6.653   2.058   0.000  0.00  0.00    +0.201 A 
ATOM     12  N   UNL     1     -10.260   0.558   0.000  0.00  0.00    -0.312 N 
ATOM     13  H   UNL     1     -10.260  -0.942   0.000  0.00  0.00    +0.170 HD
ATOM     14  N   UNL     1      -7.535   3.271   0.000  0.00  0.00    -0.231 NA
ATOM     15  S   UNL     1     -10.260   5.058   0.000  0.00  0.00    -0.028 S 
ATOM     16  C   UNL     1     -11.559   1.308   0.000  0.00  0.00    +0.193 A 
ATOM     17  N   UNL     1     -12.858   0.558   0.000  0.00  0.00    -0.329 N 
ATOM     18  H   UNL     1     -12.858  -0.427   0.000  0.00  0.00    +0.145 HD
ATOM     19  H   UNL     1     -13.711   1.050   0.000  0.00  0.00    +0.145 HD
ENDROOT
BRANCH   5   6
ATOM      6  C   UNL     1      -7.071  -0.582   0.000  0.00  0.00    +0.125 C 
BRANCH   6   7
ATOM      7  C   UNL     1      -5.604  -0.894   0.000  0.00  0.00    +0.022 C 
BRANCH   7   8
ATOM      8  C   UNL     1      -5.140  -2.321   0.000  0.00  0.00    +0.001 C 
BRANCH   8   9
ATOM      9  C   UNL     1      -3.673  -2.633   0.000  0.00  0.00    -0.003 C 
ATOM     10  C   UNL     1      -3.210  -4.059   0.000  0.00  0.00    +0.004 C 
ENDBRANCH   8   9
ENDBRANCH   7   8
ENDBRANCH   6   7
ENDBRANCH   5   6
TORSDOF 4