REMARK  Name = 605333
REMARK  0 active torsions:
REMARK  status: ('A' for Active; 'I' for Inactive)
REMARK                            x       y       z     vdW  Elec       q    Type
REMARK                         _______ _______ _______ _____ _____    ______ ____
ROOT
ATOM      1  C   UNL     1      -8.382  -4.963   0.000  0.00  0.00    +0.016 A 
ATOM      2  C   UNL     1      -7.083  -4.213   0.000  0.00  0.00    +0.022 A 
ATOM      3  S   UNL     1      -5.656  -4.677   0.000  0.00  0.00    -0.086 S 
ATOM      4  C   UNL     1      -4.775  -3.463   0.000  0.00  0.00    +0.046 A 
ATOM      5  C   UNL     1      -3.348  -3.000   0.000  0.00  0.00    +0.014 A 
ATOM      6  C   UNL     1      -2.049  -3.750   0.000  0.00  0.00    +0.011 A 
ATOM      7  C   UNL     1      -0.750  -3.000   0.000  0.00  0.00    +0.001 A 
ATOM      8  C   UNL     1      -0.750  -1.500   0.000  0.00  0.00    +0.002 A 
ATOM      9  C   UNL     1      -2.049  -0.750   0.000  0.00  0.00    +0.026 A 
ATOM     10  C   UNL     1      -3.348  -1.500   0.000  0.00  0.00    +0.048 A 
ATOM     11  N   UNL     1      -4.775  -1.037   0.000  0.00  0.00    -0.353 N 
ATOM     12  H   UNL     1      -5.079  -0.100   0.000  0.00  0.00    +0.166 HD
ATOM     13  C   UNL     1      -5.656  -2.250   0.000  0.00  0.00    +0.062 A 
ATOM     14  C   UNL     1      -7.083  -2.713   0.000  0.00  0.00    +0.013 A 
ATOM     15  C   UNL     1      -8.382  -1.964   0.000  0.00  0.00    +0.011 A 
ATOM     16  C   UNL     1      -9.681  -2.713   0.000  0.00  0.00    +0.001 A 
ATOM     17  C   UNL     1      -9.681  -4.213   0.000  0.00  0.00    +0.001 A 
ENDROOT
TORSDOF 0