REMARK  Name = 59620
REMARK  6 active torsions:
REMARK  status: ('A' for Active; 'I' for Inactive)
REMARK    1  A    between atoms: C_11  and  C_36
REMARK    2  A    between atoms: C_15  and  C_35
REMARK    3  A    between atoms: C_22  and  C_34
REMARK    4  A    between atoms: C_27  and  O_30
REMARK    5  A    between atoms: O_30  and  C_31
REMARK    6  A    between atoms: C_31  and  C_33
REMARK                            x       y       z     vdW  Elec       q    Type
REMARK                         _______ _______ _______ _____ _____    ______ ____
ROOT
ATOM      1  C   UNL     1      -2.747 -12.170   0.000  0.00  0.00    -0.001 C 
ATOM      2  C   UNL     1      -3.598 -13.405   0.000  0.00  0.00    +0.048 C 
ATOM      3  C   UNL     1      -5.093 -13.285   0.000  0.00  0.00    +0.177 C 
ATOM      8  C   UNL     1      -5.737 -11.930   0.000  0.00  0.00    +0.045 C 
ATOM      9  C   UNL     1      -4.886 -10.695   0.000  0.00  0.00    +0.011 C 
ATOM     10  C   UNL     1      -1.251 -12.290   0.000  0.00  0.00    +0.004 C 
ATOM     11  C   UNL     1      -0.400 -11.055   0.000  0.00  0.00    +0.004 C 
ATOM     12  C   UNL     1      -1.044  -9.700   0.000  0.00  0.00    -0.003 C 
ATOM     13  C   UNL     1      -2.539  -9.580   0.000  0.00  0.00    +0.006 C 
ATOM     14  C   UNL     1      -3.183  -8.225   0.000  0.00  0.00    +0.079 C 
ATOM     15  C   UNL     1      -2.331  -6.990   0.000  0.00  0.00    +0.140 C 
ATOM     16  C   UNL     1      -0.836  -7.110   0.000  0.00  0.00    +0.039 C 
ATOM     17  C   UNL     1      -1.334  -5.696   0.000  0.00  0.00    +0.020 C 
ATOM     18  C   UNL     1       0.254  -6.080   0.000  0.00  0.00    +0.076 C 
ATOM     19  C   UNL     1       1.571  -6.797   0.000  0.00  0.00    +0.005 C 
ATOM     20  C   UNL     1       1.295  -8.272   0.000  0.00  0.00    +0.009 C 
ATOM     21  C   UNL     1       2.851  -6.015   0.000  0.00  0.00    +0.034 C 
ATOM     22  C   UNL     1       2.814  -4.516   0.000  0.00  0.00    -0.069 C 
ATOM     23  C   UNL     1       4.094  -3.734   0.000  0.00  0.00    +0.039 C 
ATOM     24  C   UNL     1       1.497  -3.798   0.000  0.00  0.00    +0.045 C 
ATOM     25  C   UNL     1       0.217  -4.580   0.000  0.00  0.00    +0.160 C 
ATOM     26  O   UNL     1      -1.100  -3.862   0.000  0.00  0.00    -0.292 OA
ATOM     27  O   UNL     1      -2.975  -5.636   0.000  0.00  0.00    -0.297 OA
ATOM     28  C   UNL     1      -0.192  -8.465   0.000  0.00  0.00    +0.006 C 
ATOM     29  C   UNL     1      -3.390 -10.815   0.000  0.00  0.00    -0.026 C 
ATOM     30  C   UNL     1      -4.034  -9.460   0.000  0.00  0.00    +0.012 C 
ENDROOT
BRANCH   3   4
ATOM      4  O   UNL     1      -5.945 -14.520   0.000  0.00  0.00    -0.462 OA
BRANCH   4   5
ATOM      5  C   UNL     1      -7.440 -14.400   0.000  0.00  0.00    +0.304 C 
ATOM      6  C   UNL     1      -8.084 -13.045   0.000  0.00  0.00    +0.136 C 
ATOM      7  O   UNL     1      -8.291 -15.635   0.000  0.00  0.00    -0.251 OA
ENDBRANCH   4   5
ENDBRANCH   3   4
TORSDOF 2