REMARK  Name = 6101
REMARK  6 active torsions:
REMARK  status: ('A' for Active; 'I' for Inactive)
REMARK    1  A    between atoms: O_1  and  C_7
REMARK    2  A    between atoms: O_1  and  C_20
REMARK    3  A    between atoms: C_8  and  C_20
REMARK    4  A    between atoms: C_10  and  C_22
REMARK    5  A    between atoms: C_15  and  O_24
REMARK    6  A    between atoms: C_22  and  O_24
REMARK                            x       y       z     vdW  Elec       q    Type
REMARK                         _______ _______ _______ _____ _____    ______ ____
ROOT
ATOM      4  C   UNL     1      -8.544  -3.000   0.000  0.00  0.00    +0.073 A 
ATOM      5  C   UNL     1      -9.843  -3.750   0.000  0.00  0.00    +0.016 A 
ATOM      6  C   UNL     1      -9.843  -5.250   0.000  0.00  0.00    +0.001 A 
ATOM      7  C   UNL     1      -8.544  -6.000   0.000  0.00  0.00    +0.001 A 
ATOM      8  C   UNL     1      -7.245  -5.250   0.000  0.00  0.00    +0.016 A 
ATOM      9  C   UNL     1      -7.245  -3.750   0.000  0.00  0.00    +0.073 A 
ENDROOT
BRANCH   4   2
ATOM      2  C   UNL     1      -8.544  -1.500   0.000  0.00  0.00    +0.340 C 
ATOM      3  O   UNL     1      -9.843  -0.750   0.000  0.00  0.00    -0.245 OA
BRANCH   2   1
ATOM      1  O   UNL     1      -7.245  -0.750   0.000  0.00  0.00    -0.458 OA
BRANCH   1  19
ATOM     19  C   UNL     1      -7.245   0.750   0.000  0.00  0.00    +0.177 C 
ATOM     20  C   UNL     1      -5.946   1.500   0.000  0.00  0.00    +0.044 C 
ATOM     21  C   UNL     1      -5.946   3.000   0.000  0.00  0.00    +0.004 C 
ATOM     22  C   UNL     1      -7.245   3.750   0.000  0.00  0.00    +0.000 C 
ATOM     23  C   UNL     1      -8.544   3.000   0.000  0.00  0.00    +0.004 C 
ATOM     24  C   UNL     1      -8.544   1.500   0.000  0.00  0.00    +0.044 C 
ENDBRANCH   1  19
ENDBRANCH   2   1
ENDBRANCH   4   2
BRANCH   9  10
ATOM     10  C   UNL     1      -5.946  -3.000   0.000  0.00  0.00    +0.340 C 
ATOM     18  O   UNL     1      -5.946  -1.500   0.000  0.00  0.00    -0.245 OA
BRANCH  10  11
ATOM     11  O   UNL     1      -4.647  -3.750   0.000  0.00  0.00    -0.458 OA
BRANCH  11  12
ATOM     12  C   UNL     1      -3.348  -3.000   0.000  0.00  0.00    +0.177 C 
ATOM     13  C   UNL     1      -2.049  -3.750   0.000  0.00  0.00    +0.044 C 
ATOM     14  C   UNL     1      -0.750  -3.000   0.000  0.00  0.00    +0.004 C 
ATOM     15  C   UNL     1      -0.750  -1.500   0.000  0.00  0.00    +0.000 C 
ATOM     16  C   UNL     1      -2.049  -0.750   0.000  0.00  0.00    +0.004 C 
ATOM     17  C   UNL     1      -3.348  -1.500   0.000  0.00  0.00    +0.044 C 
ENDBRANCH  11  12
ENDBRANCH  10  11
ENDBRANCH   9  10
TORSDOF 6