REMARK  Name = 623109
REMARK  1 active torsions:
REMARK  status: ('A' for Active; 'I' for Inactive)
REMARK    1  A    between atoms: N_2  and  C_3
REMARK                            x       y       z     vdW  Elec       q    Type
REMARK                         _______ _______ _______ _____ _____    ______ ____
ROOT
ATOM      1  C   UNL     1      -8.819   2.725   0.000  0.00  0.00    +0.103 C 
ATOM      2  C   UNL     1      -7.520   1.976   0.000  0.00  0.00    +0.123 C 
ATOM      3  N   UNL     1      -7.520   0.475   0.000  0.00  0.00    -0.297 N 
ATOM      4  C   UNL     1      -6.221  -0.275   0.000  0.00  0.00    +0.221 A 
ATOM      5  N   UNL     1      -6.221  -1.775   0.000  0.00  0.00    -0.199 NA
ATOM      6  C   UNL     1      -4.922  -2.525   0.000  0.00  0.00    +0.137 A 
ATOM      7  N   UNL     1      -4.922  -4.024   0.000  0.00  0.00    -0.342 N 
ATOM      8  H   UNL     1      -4.069  -4.517   0.000  0.00  0.00    +0.144 HD
ATOM      9  H   UNL     1      -5.774  -4.517   0.000  0.00  0.00    +0.144 HD
ATOM     10  C   UNL     1      -3.623  -1.775   0.000  0.00  0.00    +0.094 A 
ATOM     11 BR   UNL     1      -2.324  -2.525   0.000  0.00  0.00    -0.044 Br
ATOM     12  C   UNL     1      -3.623  -0.275   0.000  0.00  0.00    +0.150 A 
ATOM     13 CL   UNL     1      -2.324   0.475   0.000  0.00  0.00    -0.061 Cl
ATOM     14  N   UNL     1      -4.922   0.475   0.000  0.00  0.00    -0.201 NA
ATOM     15  C   UNL     1      -8.819  -0.275   0.000  0.00  0.00    +0.123 C 
ATOM     16  C   UNL     1     -10.118   0.475   0.000  0.00  0.00    +0.103 C 
ATOM     17  N   UNL     1     -10.118   1.976   0.000  0.00  0.00    -0.302 NA
ATOM     18  C   UNL     1     -11.417   2.725   0.000  0.00  0.00    +0.105 C 
ENDROOT
TORSDOF 0