REMARK  Name = 601351
REMARK  7 active torsions:
REMARK  status: ('A' for Active; 'I' for Inactive)
REMARK    1  A    between atoms: N_1  and  C_6
REMARK    2  A    between atoms: C_6  and  C_7
REMARK    3  A    between atoms: C_7  and  C_8
REMARK    4  A    between atoms: C_7  and  O_12
REMARK    5  A    between atoms: C_8  and  N_9
REMARK    6  A    between atoms: C_10  and  C_13
REMARK    7  A    between atoms: C_11  and  C_14
REMARK                            x       y       z     vdW  Elec       q    Type
REMARK                         _______ _______ _______ _____ _____    ______ ____
ROOT
ATOM      2  C   UNL     1       4.362   1.149   0.000  0.00  0.00    +0.161 C 
ENDROOT
BRANCH   2   1
ATOM      1  N   UNL     1       3.213   2.113   0.000  0.00  0.00    -0.269 N 
ATOM     12  C   UNL     1       3.318   3.609   0.000  0.00  0.00    +0.113 A 
ATOM     13  C   UNL     1       1.927   4.171   0.000  0.00  0.00    +0.137 A 
ATOM     14  N   UNL     1       0.963   3.022   0.000  0.00  0.00    -0.172 NA
ATOM     15  C   UNL     1       1.758   1.750   0.000  0.00  0.00    +0.450 A 
ATOM     16  N   UNL     1       1.196   0.359   0.000  0.00  0.00    +0.120 N 
ATOM     17  O   UNL     1      -0.289   0.150   0.000  0.00  0.00    +0.045 OA
ATOM     18  O   UNL     1       2.120  -0.823   0.000  0.00  0.00    -0.573 OA
ENDBRANCH   2   1
BRANCH   2   3
ATOM      3  C   UNL     1       5.662   1.899   0.000  0.00  0.00    +0.148 C 
BRANCH   3   4
ATOM      4  O   UNL     1       5.662   3.398   0.000  0.00  0.00    -0.389 OA
ATOM      5  H   UNL     1       6.502   3.884   0.000  0.00  0.00    +0.210 HD
ENDBRANCH   3   4
BRANCH   3   6
ATOM      6  C   UNL     1       6.961   1.149   0.000  0.00  0.00    +0.118 C 
BRANCH   6   7
ATOM      7  N   UNL     1       8.260   1.899   0.000  0.00  0.00    -0.292 NA
ATOM      8  C   UNL     1       9.010   3.197   0.000  0.00  0.00    +0.071 C 
ATOM      9  C   UNL     1       9.010   4.697   0.000  0.00  0.00    +0.026 C 
ATOM     10  C   UNL     1       9.760   1.899   0.000  0.00  0.00    +0.071 C 
ATOM     11  C   UNL     1      11.059   1.149   0.000  0.00  0.00    +0.026 C 
ENDBRANCH   6   7
ENDBRANCH   3   6
ENDBRANCH   2   3
TORSDOF 5