REMARK  Name = 60266
REMARK  7 active torsions:
REMARK  status: ('A' for Active; 'I' for Inactive)
REMARK    1  A    between atoms: C_6  and  C_12
REMARK    2  A    between atoms: C_8  and  S_9
REMARK    3  A    between atoms: S_9  and  C_10
REMARK    4  A    between atoms: C_10  and  C_11
REMARK    5  A    between atoms: C_12  and  O_14
REMARK    6  A    between atoms: O_14  and  C_15
REMARK    7  A    between atoms: C_15  and  C_16
REMARK                            x       y       z     vdW  Elec       q    Type
REMARK                         _______ _______ _______ _____ _____    ______ ____
ROOT
ATOM      1  N   UNL     1      -2.873  -5.524   0.000  0.00  0.00    -0.185 NA
ATOM      2  C   UNL     1      -1.574  -4.774   0.000  0.00  0.00    +0.288 A 
ATOM      3  C   UNL     1      -0.275  -5.524   0.000  0.00  0.00    +0.141 A 
ATOM      9  C   UNL     1      -0.275  -7.024   0.000  0.00  0.00    +0.105 A 
ATOM     10  N   UNL     1      -1.574  -7.774   0.000  0.00  0.00    -0.340 N 
ATOM     11  H   UNL     1      -1.574  -9.274   0.000  0.00  0.00    +0.167 HD
ATOM     12  O   UNL     1      -1.574  -3.275   0.000  0.00  0.00    -0.265 OA
ATOM     13  C   UNL     1      -2.873  -7.024   0.000  0.00  0.00    +0.170 A 
ENDROOT
BRANCH   3   4
ATOM      4  C   UNL     1       1.025  -4.774   0.000  0.00  0.00    +0.346 C 
ATOM      8  O   UNL     1       2.324  -5.524   0.000  0.00  0.00    -0.245 OA
BRANCH   4   5
ATOM      5  O   UNL     1       1.025  -3.275   0.000  0.00  0.00    -0.461 OA
BRANCH   5   6
ATOM      6  C   UNL     1      -0.275  -2.525   0.000  0.00  0.00    +0.229 C 
ATOM      7  C   UNL     1      -0.275  -1.025   0.000  0.00  0.00    +0.048 C 
ENDBRANCH   5   6
ENDBRANCH   4   5
ENDBRANCH   3   4
BRANCH  13  14
ATOM     14  S   UNL     1      -4.172  -7.774   0.000  0.00  0.00    -0.088 S 
BRANCH  14  15
ATOM     15  C   UNL     1      -5.471  -7.024   0.000  0.00  0.00    +0.074 C 
ATOM     16  C   UNL     1      -6.770  -7.774   0.000  0.00  0.00    +0.016 C 
ENDBRANCH  14  15
ENDBRANCH  13  14
TORSDOF 5