REMARK  Name = 96541
REMARK  2 active torsions:
REMARK  status: ('A' for Active; 'I' for Inactive)
REMARK    1  A    between atoms: C_4  and  C_21
REMARK    2  A    between atoms: C_16  and  C_23
REMARK                            x       y       z     vdW  Elec       q    Type
REMARK                         _______ _______ _______ _____ _____    ______ ____
ROOT
ATOM      1  N   UNL     1      -3.522  -5.899   0.000  0.00  0.00    -0.247 N 
ATOM      2  C   UNL     1      -2.223  -6.649   0.000  0.00  0.00    +0.252 C 
ATOM      3  O   UNL     1      -2.223  -8.149   0.000  0.00  0.00    -0.270 OA
ATOM     10  C   UNL     1      -4.821  -6.649   0.000  0.00  0.00    +0.046 A 
ATOM     11  C   UNL     1      -4.821  -8.149   0.000  0.00  0.00    +0.025 A 
ATOM     12  C   UNL     1      -6.120  -8.899   0.000  0.00  0.00    +0.010 A 
ATOM     13  C   UNL     1      -7.419  -8.149   0.000  0.00  0.00    -0.017 A 
ATOM     14  C   UNL     1      -8.718  -8.899   0.000  0.00  0.00    +0.008 A 
ATOM     15  C   UNL     1     -10.017  -8.149   0.000  0.00  0.00    +0.001 A 
ATOM     16  C   UNL     1     -10.017  -6.649   0.000  0.00  0.00    +0.001 A 
ATOM     17  C   UNL     1      -8.718  -5.899   0.000  0.00  0.00    +0.009 A 
ATOM     18  C   UNL     1      -7.419  -6.649   0.000  0.00  0.00    -0.009 A 
ATOM     19  C   UNL     1      -6.120  -5.899   0.000  0.00  0.00    +0.004 A 
ATOM     20  C   UNL     1      -6.120  -4.399   0.000  0.00  0.00    +0.009 C 
ATOM     21  C   UNL     1      -4.821  -3.650   0.000  0.00  0.00    +0.011 C 
ATOM     22  C   UNL     1      -3.522  -4.399   0.000  0.00  0.00    +0.207 C 
ENDROOT
BRANCH   2   4
ATOM      4  C   UNL     1      -0.924  -5.899   0.000  0.00  0.00    +0.037 A 
ATOM      5  C   UNL     1       0.375  -6.649   0.000  0.00  0.00    +0.013 A 
ATOM      6  C   UNL     1       1.674  -5.899   0.000  0.00  0.00    +0.001 A 
ATOM      7  C   UNL     1       1.674  -4.399   0.000  0.00  0.00    +0.000 A 
ATOM      8  C   UNL     1       0.375  -3.650   0.000  0.00  0.00    +0.001 A 
ATOM      9  C   UNL     1      -0.924  -4.399   0.000  0.00  0.00    +0.013 A 
ENDBRANCH   2   4
BRANCH  22  23
ATOM     23  C   UNL     1      -2.223  -3.650   0.000  0.00  0.00    +0.090 C 
ATOM     24  N   UNL     1      -0.924  -2.900   0.000  0.00  0.00    -0.194 NA
ENDBRANCH  22  23
TORSDOF 2