REMARK  Name = 9782
REMARK  3 active torsions:
REMARK  status: ('A' for Active; 'I' for Inactive)
REMARK    1  A    between atoms: C_7  and  C_24
REMARK    2  A    between atoms: C_15  and  C_23
REMARK    3  A    between atoms: C_19  and  O_22
REMARK                            x       y       z     vdW  Elec       q    Type
REMARK                         _______ _______ _______ _____ _____    ______ ____
ROOT
ATOM      1  C   UNL     1      -1.749  -6.946   0.000  0.00  0.00    +0.027 C 
ATOM      2  C   UNL     1      -2.752  -8.061   0.000  0.00  0.00    -0.033 A 
ATOM      3  C   UNL     1      -4.220  -7.749   0.000  0.00  0.00    -0.043 A 
ATOM      4  C   UNL     1      -4.683  -6.322   0.000  0.00  0.00    +0.044 C 
ATOM      5  C   UNL     1      -5.223  -8.863   0.000  0.00  0.00    +0.049 A 
ATOM      6  C   UNL     1      -4.760 -10.290   0.000  0.00  0.00    +0.118 A 
ATOM      9  C   UNL     1      -3.293 -10.602   0.000  0.00  0.00    +0.053 A 
ATOM     10  C   UNL     1      -2.289  -9.487   0.000  0.00  0.00    -0.018 A 
ATOM     11  C   UNL     1      -0.822  -9.799   0.000  0.00  0.00    +0.004 C 
ATOM     12  C   UNL     1       0.182  -8.684   0.000  0.00  0.00    -0.022 C 
ATOM     13  C   UNL     1      -0.282  -7.258   0.000  0.00  0.00    +0.023 C 
ATOM     14  C   UNL     1       0.722  -6.143   0.000  0.00  0.00    +0.010 C 
ATOM     15  C   UNL     1       2.222  -6.143   0.000  0.00  0.00    +0.012 C 
ATOM     16  C   UNL     1       2.686  -4.716   0.000  0.00  0.00    +0.075 C 
ATOM     17  C   UNL     1       1.472  -3.835   0.000  0.00  0.00    +0.139 C 
ATOM     18  O   UNL     1       1.472  -2.335   0.000  0.00  0.00    -0.297 OA
ATOM     19  C   UNL     1       0.259  -4.716   0.000  0.00  0.00    +0.030 C 
ATOM     20  C   UNL     1      -0.053  -3.249   0.000  0.00  0.00    +0.019 C 
ATOM     21  C   UNL     1      -1.209  -4.404   0.000  0.00  0.00    +0.015 C 
ATOM     22  C   UNL     1      -2.212  -5.519   0.000  0.00  0.00    +0.010 C 
ENDROOT
BRANCH   6   7
ATOM      7  O   UNL     1      -5.764 -11.405   0.000  0.00  0.00    -0.507 OA
ATOM      8  H   UNL     1      -6.680 -11.210   0.000  0.00  0.00    +0.292 HD
ENDBRANCH   6   7
TORSDOF 1