REMARK  Name = 99660
REMARK  6 active torsions:
REMARK  status: ('A' for Active; 'I' for Inactive)
REMARK    1  A    between atoms: N_1  and  C_20
REMARK    2  A    between atoms: N_3  and  C_19
REMARK    3  A    between atoms: C_8  and  S_11
REMARK    4  A    between atoms: S_11  and  C_12
REMARK    5  A    between atoms: N_14  and  C_21
REMARK    6  A    between atoms: C_21  and  C_22
REMARK                            x       y       z     vdW  Elec       q    Type
REMARK                         _______ _______ _______ _____ _____    ______ ____
ROOT
ATOM      1  N   UNL     1      -9.730  -7.984   0.000  0.00  0.00    -0.289 N 
ATOM      2  C   UNL     1     -11.029  -7.234   0.000  0.00  0.00    +0.154 C 
ATOM      3  C   UNL     1      -8.431  -7.234   0.000  0.00  0.00    +0.118 A 
ATOM      4  S   UNL     1      -8.431  -5.734   0.000  0.00  0.00    -0.030 S 
ATOM      5  C   UNL     1      -7.132  -7.984   0.000  0.00  0.00    +0.116 A 
ATOM      6  N   UNL     1      -5.705  -7.520   0.000  0.00  0.00    -0.330 N 
ATOM      7  H   UNL     1      -5.401  -6.584   0.000  0.00  0.00    +0.168 HD
ATOM      8  C   UNL     1      -4.824  -8.734   0.000  0.00  0.00    +0.169 A 
ATOM     18  N   UNL     1      -5.705  -9.947   0.000  0.00  0.00    -0.204 NA
ATOM     19  C   UNL     1      -7.132  -9.484   0.000  0.00  0.00    +0.166 A 
ATOM     20  N   UNL     1      -8.431 -10.234   0.000  0.00  0.00    -0.280 N 
ATOM     21  C   UNL     1      -8.431 -11.734   0.000  0.00  0.00    +0.155 C 
ATOM     22  C   UNL     1      -9.730  -9.484   0.000  0.00  0.00    +0.331 A 
ATOM     23  O   UNL     1     -11.029 -10.234   0.000  0.00  0.00    -0.246 OA
ENDROOT
BRANCH   8   9
ATOM      9  S   UNL     1      -3.324  -8.734   0.000  0.00  0.00    -0.083 S 
BRANCH   9  10
ATOM     10  C   UNL     1      -2.574  -7.435   0.000  0.00  0.00    +0.068 C 
ATOM     11  C   UNL     1      -3.324  -6.136   0.000  0.00  0.00    +0.017 C 
ATOM     12  C   UNL     1      -2.574  -4.837   0.000  0.00  0.00    +0.016 C 
ATOM     13  C   UNL     1      -1.074  -4.837   0.000  0.00  0.00    +0.084 C 
ATOM     14  N   UNL     1      -0.324  -6.136   0.000  0.00  0.00    -0.302 NA
ATOM     17  C   UNL     1      -1.074  -7.435   0.000  0.00  0.00    +0.099 C 
BRANCH  14  15
ATOM     15  C   UNL     1       1.176  -6.136   0.000  0.00  0.00    +0.081 C 
ATOM     16  C   UNL     1       1.926  -4.837   0.000  0.00  0.00    +0.020 C 
ENDBRANCH  14  15
ENDBRANCH   9  10
ENDBRANCH   8   9
TORSDOF 3