REMARK  Name = 96996
REMARK  4 active torsions:
REMARK  status: ('A' for Active; 'I' for Inactive)
REMARK    1  A    between atoms: N_3  and  C_20
REMARK    2  A    between atoms: C_16  and  C_26
REMARK    3  A    between atoms: C_17  and  C_25
REMARK    4  A    between atoms: C_22  and  C_24
REMARK                            x       y       z     vdW  Elec       q    Type
REMARK                         _______ _______ _______ _____ _____    ______ ____
ROOT
ATOM      1  N   UNL     1       6.870  -1.400   0.000  0.00  0.00    -0.229 NA
ATOM      2  C   UNL     1       5.571  -2.150   0.000  0.00  0.00    +0.079 A 
ATOM      3  C   UNL     1       5.571  -3.650   0.000  0.00  0.00    +0.065 A 
ATOM      4  C   UNL     1       6.870  -4.399   0.000  0.00  0.00    +0.267 A 
ATOM      5  N   UNL     1       8.169  -3.650   0.000  0.00  0.00    -0.261 N 
ATOM     13  O   UNL     1       6.870  -5.899   0.000  0.00  0.00    -0.267 OA
ATOM     14  C   UNL     1       4.272  -4.399   0.000  0.00  0.00    +0.015 A 
ATOM     15  C   UNL     1       2.973  -3.650   0.000  0.00  0.00    +0.001 A 
ATOM     16  C   UNL     1       2.973  -2.150   0.000  0.00  0.00    +0.002 A 
ATOM     17  C   UNL     1       4.272  -1.400   0.000  0.00  0.00    +0.028 A 
ATOM     18  C   UNL     1       8.169  -2.150   0.000  0.00  0.00    +0.141 A 
ENDROOT
BRANCH   5   6
ATOM      6  C   UNL     1       9.468  -4.399   0.000  0.00  0.00    +0.054 A 
ATOM      7  C   UNL     1       9.468  -5.899   0.000  0.00  0.00    -0.026 A 
ATOM      8  C   UNL     1       8.169  -6.649   0.000  0.00  0.00    +0.046 C 
ATOM      9  C   UNL     1      10.767  -6.649   0.000  0.00  0.00    +0.005 A 
ATOM     10  C   UNL     1      12.066  -5.899   0.000  0.00  0.00    +0.000 A 
ATOM     11  C   UNL     1      12.066  -4.399   0.000  0.00  0.00    +0.002 A 
ATOM     12  C   UNL     1      10.767  -3.650   0.000  0.00  0.00    +0.026 A 
ENDBRANCH   5   6
BRANCH  18  19
ATOM     19  C   UNL     1       9.468  -1.400   0.000  0.00  0.00    +0.049 C 
ATOM     20  C   UNL     1       9.468   0.101   0.000  0.00  0.00    +0.031 C 
BRANCH  20  21
ATOM     21  C   UNL     1       8.169   0.851   0.000  0.00  0.00    +0.064 A 
ATOM     22  C   UNL     1       8.169   2.350   0.000  0.00  0.00    +0.028 A 
ATOM     23  C   UNL     1       6.870   3.100   0.000  0.00  0.00    +0.004 A 
ATOM     24  C   UNL     1       5.571   2.350   0.000  0.00  0.00    +0.020 A 
ATOM     25  C   UNL     1       5.571   0.851   0.000  0.00  0.00    +0.111 A 
ATOM     26  N   UNL     1       6.870   0.101   0.000  0.00  0.00    -0.256 NA
ENDBRANCH  20  21
ENDBRANCH  18  19
TORSDOF 3