REMARK  Name = 98683
REMARK  2 active torsions:
REMARK  status: ('A' for Active; 'I' for Inactive)
REMARK    1  A    between atoms: C_9  and  N_14
REMARK    2  A    between atoms: C_12  and  C_17
REMARK                            x       y       z     vdW  Elec       q    Type
REMARK                         _______ _______ _______ _____ _____    ______ ____
ROOT
ATOM      1  O   UNL     1       3.523  -1.602   0.000  0.00  0.00    -0.260 OA
ATOM      2  C   UNL     1       4.822  -2.352   0.000  0.00  0.00    +0.334 A 
ATOM      3  C   UNL     1       6.121  -1.602   0.000  0.00  0.00    +0.378 A 
ATOM      7  C   UNL     1       7.420  -2.352   0.000  0.00  0.00    +0.222 A 
ATOM      8  N   UNL     1       8.847  -1.888   0.000  0.00  0.00    -0.254 N 
ATOM      9  N   UNL     1       9.728  -3.102   0.000  0.00  0.00    -0.159 NA
ATOM     10  C   UNL     1       8.847  -4.316   0.000  0.00  0.00    +0.137 A 
ATOM     11  C   UNL     1       9.310  -5.742   0.000  0.00  0.00    +0.088 C 
ATOM     12  H   UNL     1       9.310  -0.462   0.000  0.00  0.00    +0.191 HD
ATOM     13  N   UNL     1       7.420  -3.852   0.000  0.00  0.00    -0.227 N 
ATOM     14  C   UNL     1       6.121  -4.602   0.000  0.00  0.00    +0.337 A 
ATOM     15  O   UNL     1       6.121  -6.102   0.000  0.00  0.00    -0.246 OA
ATOM     16  N   UNL     1       4.822  -3.852   0.000  0.00  0.00    -0.269 N 
ATOM     17  H   UNL     1       3.523  -4.602   0.000  0.00  0.00    +0.174 HD
ENDROOT
BRANCH   3   4
ATOM      4  N   UNL     1       6.121  -0.102   0.000  0.00  0.00    +0.089 N 
ATOM      5  O   UNL     1       7.420   0.648   0.000  0.00  0.00    +0.042 OA
ATOM      6  O   UNL     1       4.822   0.648   0.000  0.00  0.00    -0.576 OA
ENDBRANCH   3   4
TORSDOF 1