REMARK  Name = 93945
REMARK  4 active torsions:
REMARK  status: ('A' for Active; 'I' for Inactive)
REMARK    1  A    between atoms: C_12  and  C_18
REMARK    2  A    between atoms: C_13  and  O_20
REMARK    3  A    between atoms: C_14  and  O_19
REMARK    4  A    between atoms: O_20  and  C_21
REMARK                            x       y       z     vdW  Elec       q    Type
REMARK                         _______ _______ _______ _____ _____    ______ ____
ROOT
ATOM      1  O   UNL     1      -2.973 -11.150   0.000  0.00  0.00    -0.252 OA
ATOM      2  C   UNL     1      -1.674 -10.400   0.000  0.00  0.00    +0.313 C 
ATOM      3  N   UNL     1      -0.375 -11.150   0.000  0.00  0.00    -0.236 N 
ATOM      4  H   UNL     1      -0.375 -12.650   0.000  0.00  0.00    +0.159 HD
ATOM      5  C   UNL     1       0.924 -10.400   0.000  0.00  0.00    +0.256 C 
ATOM      6  C   UNL     1       0.924  -8.899   0.000  0.00  0.00    +0.100 C 
ATOM      7  C   UNL     1       2.223  -8.149   0.000  0.00  0.00    +0.026 C 
ATOM     18  C   UNL     1      -0.375  -8.149   0.000  0.00  0.00    +0.256 C 
ATOM     19  O   UNL     1      -0.375  -6.649   0.000  0.00  0.00    -0.270 OA
ATOM     20  O   UNL     1       2.223 -11.150   0.000  0.00  0.00    -0.270 OA
ATOM     21  N   UNL     1      -1.674  -8.899   0.000  0.00  0.00    -0.236 N 
ATOM     22  H   UNL     1      -2.973  -8.149   0.000  0.00  0.00    +0.159 HD
ENDROOT
BRANCH   7   8
ATOM      8  C   UNL     1       3.522  -8.899   0.000  0.00  0.00    -0.020 A 
ATOM      9  C   UNL     1       3.522 -10.400   0.000  0.00  0.00    +0.012 A 
ATOM     10  C   UNL     1       4.821 -11.150   0.000  0.00  0.00    +0.050 A 
ATOM     11  C   UNL     1       6.120 -10.400   0.000  0.00  0.00    +0.158 A 
ATOM     14  C   UNL     1       6.120  -8.899   0.000  0.00  0.00    +0.162 A 
ATOM     17  C   UNL     1       4.821  -8.149   0.000  0.00  0.00    +0.057 A 
BRANCH  11  12
ATOM     12  O   UNL     1       7.419 -11.150   0.000  0.00  0.00    -0.503 OA
ATOM     13  H   UNL     1       7.419 -12.086   0.000  0.00  0.00    +0.292 HD
ENDBRANCH  11  12
BRANCH  14  15
ATOM     15  O   UNL     1       7.419  -8.149   0.000  0.00  0.00    -0.491 OA
ATOM     16  C   UNL     1       8.718  -8.899   0.000  0.00  0.00    +0.277 C 
ENDBRANCH  14  15
ENDBRANCH   7   8
TORSDOF 3