REMARK  Name = 93033
REMARK  6 active torsions:
REMARK  status: ('A' for Active; 'I' for Inactive)
REMARK    1  A    between atoms: N_2  and  C_23
REMARK    2  A    between atoms: C_10  and  N_20
REMARK    3  A    between atoms: C_11  and  O_19
REMARK    4  A    between atoms: C_13  and  C_16
REMARK    5  A    between atoms: C_16  and  O_18
REMARK    6  A    between atoms: C_21  and  C_23
REMARK                            x       y       z     vdW  Elec       q    Type
REMARK                         _______ _______ _______ _____ _____    ______ ____
ROOT
ATOM     11  C   UNL     1       1.674   8.899   0.000  0.00  0.00    +0.237 C 
ATOM     12  O   UNL     1       0.375   9.649   0.000  0.00  0.00    -0.274 OA
ATOM     13  N   UNL     1       1.674   7.399   0.000  0.00  0.00    -0.284 N 
ATOM     14  H   UNL     1       2.527   6.907   0.000  0.00  0.00    +0.155 HD
ENDROOT
BRANCH  13  15
ATOM     15  C   UNL     1       0.375   6.649   0.000  0.00  0.00    +0.037 A 
ATOM     16  C   UNL     1       0.375   5.149   0.000  0.00  0.00    +0.024 A 
ATOM     17  C   UNL     1      -0.924   4.399   0.000  0.00  0.00    +0.020 A 
ATOM     18  C   UNL     1      -2.223   5.149   0.000  0.00  0.00    +0.100 A 
ATOM     23  C   UNL     1      -2.223   6.649   0.000  0.00  0.00    +0.133 A 
ATOM     26  C   UNL     1      -0.924   7.399   0.000  0.00  0.00    +0.069 A 
BRANCH  18  19
ATOM     19  C   UNL     1      -3.522   4.399   0.000  0.00  0.00    +0.340 C 
ATOM     22  O   UNL     1      -4.821   5.149   0.000  0.00  0.00    -0.245 OA
BRANCH  19  20
ATOM     20  O   UNL     1      -3.522   2.900   0.000  0.00  0.00    -0.477 OA
ATOM     21  H   UNL     1      -4.334   2.431   0.000  0.00  0.00    +0.295 HD
ENDBRANCH  19  20
ENDBRANCH  18  19
BRANCH  23  24
ATOM     24  O   UNL     1      -3.522   7.399   0.000  0.00  0.00    -0.506 OA
ATOM     25  H   UNL     1      -3.522   8.336   0.000  0.00  0.00    +0.292 HD
ENDBRANCH  23  24
ENDBRANCH  13  15
BRANCH  11  10
ATOM     10  C   UNL     1       2.973   9.649   0.000  0.00  0.00    +0.222 C 
BRANCH  10   9
ATOM      1  O   UNL     1       5.571  11.150   0.000  0.00  0.00    -0.246 OA
ATOM      2  C   UNL     1       4.272  11.900   0.000  0.00  0.00    +0.330 A 
ATOM      3  N   UNL     1       4.272  13.400   0.000  0.00  0.00    -0.275 N 
ATOM      4  H   UNL     1       5.571  14.150   0.000  0.00  0.00    +0.173 HD
ATOM      5  C   UNL     1       2.973  14.150   0.000  0.00  0.00    +0.254 A 
ATOM      6  C   UNL     1       1.674  13.400   0.000  0.00  0.00    +0.088 A 
ATOM      7  C   UNL     1       1.674  11.900   0.000  0.00  0.00    +0.096 A 
ATOM      8  O   UNL     1       2.973  15.650   0.000  0.00  0.00    -0.268 OA
ATOM      9  N   UNL     1       2.973  11.150   0.000  0.00  0.00    -0.292 N 
ENDBRANCH  10   9
ENDBRANCH  11  10
TORSDOF 6