REMARK  Name = 99796
REMARK  1 active torsions:
REMARK  status: ('A' for Active; 'I' for Inactive)
REMARK    1  A    between atoms: C_16  and  C_17
REMARK                            x       y       z     vdW  Elec       q    Type
REMARK                         _______ _______ _______ _____ _____    ______ ____
ROOT
ATOM      1  O   UNL     1      -6.955  -2.250   0.000  0.00  0.00    -0.456 OA
ATOM      2  C   UNL     1      -8.254  -3.000   0.000  0.00  0.00    +0.106 A 
ATOM      3  C   UNL     1      -9.553  -2.250   0.000  0.00  0.00    +0.086 C 
ATOM      4  C   UNL     1      -8.254  -4.500   0.000  0.00  0.00    +0.093 A 
ATOM      5  C   UNL     1      -6.955  -5.250   0.000  0.00  0.00    +0.197 A 
ATOM      6  C   UNL     1      -5.656  -4.500   0.000  0.00  0.00    +0.115 A 
ATOM      7  C   UNL     1      -4.357  -5.250   0.000  0.00  0.00    +0.204 C 
ATOM      8  C   UNL     1      -3.058  -4.500   0.000  0.00  0.00    +0.072 A 
ATOM      9  C   UNL     1      -1.632  -4.963   0.000  0.00  0.00    +0.053 A 
ATOM     10  C   UNL     1      -0.750  -3.750   0.000  0.00  0.00    +0.196 A 
ATOM     11  O   UNL     1      -1.632  -2.537   0.000  0.00  0.00    -0.459 OA
ATOM     12  C   UNL     1      -3.058  -3.000   0.000  0.00  0.00    +0.189 A 
ATOM     13  C   UNL     1      -4.357  -2.250   0.000  0.00  0.00    +0.264 C 
ATOM     14  O   UNL     1      -4.357  -0.750   0.000  0.00  0.00    -0.280 OA
ATOM     15  O   UNL     1      -4.357  -6.750   0.000  0.00  0.00    -0.286 OA
ATOM     16  O   UNL     1      -6.955  -6.750   0.000  0.00  0.00    -0.287 OA
ATOM     17  C   UNL     1      -5.656  -3.000   0.000  0.00  0.00    +0.193 A 
ENDROOT
TORSDOF 0