REMARK  Name = 99663
REMARK  5 active torsions:
REMARK  status: ('A' for Active; 'I' for Inactive)
REMARK    1  A    between atoms: N_2  and  C_20
REMARK    2  A    between atoms: N_4  and  C_21
REMARK    3  A    between atoms: S_8  and  C_18
REMARK    4  A    between atoms: S_8  and  C_22
REMARK    5  A    between atoms: C_17  and  C_22
REMARK                            x       y       z     vdW  Elec       q    Type
REMARK                         _______ _______ _______ _____ _____    ______ ____
ROOT
ATOM      1  S   UNL     1      -7.605  -8.370   0.000  0.00  0.00    -0.013 S 
ATOM      2  C   UNL     1      -6.306  -7.620   0.000  0.00  0.00    +0.164 A 
ATOM      3  N   UNL     1      -5.007  -8.370   0.000  0.00  0.00    -0.307 N 
ATOM      4  C   UNL     1      -5.007  -9.870   0.000  0.00  0.00    +0.153 C 
ATOM      5  C   UNL     1      -3.708  -7.620   0.000  0.00  0.00    +0.167 A 
ATOM      6  C   UNL     1      -3.708  -6.120   0.000  0.00  0.00    +0.150 A 
ATOM      7  C   UNL     1      -5.007  -5.370   0.000  0.00  0.00    +0.280 A 
ATOM      8  O   UNL     1      -5.007  -3.870   0.000  0.00  0.00    -0.265 OA
ATOM      9  N   UNL     1      -2.281  -5.657   0.000  0.00  0.00    -0.327 N 
ATOM     10  H   UNL     1      -1.818  -4.230   0.000  0.00  0.00    +0.168 HD
ATOM     11  C   UNL     1      -1.400  -6.870   0.000  0.00  0.00    +0.169 A 
ATOM     20  N   UNL     1      -2.281  -8.084   0.000  0.00  0.00    -0.204 NA
ATOM     21  N   UNL     1      -6.306  -6.120   0.000  0.00  0.00    -0.290 N 
ATOM     22  C   UNL     1      -7.605  -5.370   0.000  0.00  0.00    +0.154 C 
ENDROOT
BRANCH  11  12
ATOM     12  S   UNL     1       0.101  -6.870   0.000  0.00  0.00    -0.082 S 
BRANCH  12  13
ATOM     13  C   UNL     1       0.851  -8.169   0.000  0.00  0.00    +0.132 C 
BRANCH  13  14
ATOM     14  C   UNL     1       0.101  -9.468   0.000  0.00  0.00    +0.051 A 
ATOM     15  C   UNL     1       0.851 -10.767   0.000  0.00  0.00    +0.024 A 
ATOM     16  C   UNL     1       0.101 -12.066   0.000  0.00  0.00    +0.003 A 
ATOM     17  C   UNL     1      -1.400 -12.066   0.000  0.00  0.00    +0.020 A 
ATOM     18  C   UNL     1      -2.150 -10.767   0.000  0.00  0.00    +0.111 A 
ATOM     19  N   UNL     1      -1.400  -9.468   0.000  0.00  0.00    -0.259 NA
ENDBRANCH  13  14
ENDBRANCH  12  13
ENDBRANCH  11  12
TORSDOF 3