REMARK  Name = 99756
REMARK  4 active torsions:
REMARK  status: ('A' for Active; 'I' for Inactive)
REMARK    1  A    between atoms: C_2  and  O_6
REMARK    2  A    between atoms: C_5  and  N_10
REMARK    3  A    between atoms: C_7  and  C_9
REMARK    4  A    between atoms: C_11  and  N_12
REMARK                            x       y       z     vdW  Elec       q    Type
REMARK                         _______ _______ _______ _____ _____    ______ ____
ROOT
ATOM      1  C   UNL     1      -0.117   1.849   0.000  0.00  0.00    +0.061 C 
ATOM      2  C   UNL     1       1.153   1.052   0.000  0.00  0.00    +0.050 C 
ATOM      3  C   UNL     1       2.545   1.611   0.000  0.00  0.00    +0.390 C 
ATOM      7  C   UNL     1       0.787  -0.403   0.000  0.00  0.00    +0.041 C 
ATOM      8  C   UNL     1      -0.709  -0.504   0.000  0.00  0.00    +0.076 C 
ATOM     14  C   UNL     1      -1.269   0.888   0.000  0.00  0.00    +0.139 C 
ENDROOT
BRANCH   8   9
ATOM      9  N   UNL     1      -1.507  -1.775   0.000  0.00  0.00    -0.283 N 
ATOM     10  H   UNL     1      -1.046  -2.645   0.000  0.00  0.00    +0.155 HD
ATOM     11  C   UNL     1      -3.006  -1.720   0.000  0.00  0.00    +0.214 C 
ATOM     12  C   UNL     1      -3.803  -2.990   0.000  0.00  0.00    +0.109 C 
ATOM     13  O   UNL     1      -3.707  -0.394   0.000  0.00  0.00    -0.276 OA
ENDBRANCH   8   9
BRANCH   3   4
ATOM      4  N   UNL     1       3.725   0.686   0.000  0.00  0.00    +0.072 N 
ATOM      5  O   UNL     1       3.514  -0.799   0.000  0.00  0.00    +0.041 OA
ATOM      6  O   UNL     1       5.117   1.245   0.000  0.00  0.00    -0.577 OA
ENDBRANCH   3   4
BRANCH  14  15
ATOM     15  O   UNL     1      -2.723   1.253   0.000  0.00  0.00    -0.505 OA
ATOM     16  H   UNL     1      -2.980   2.155   0.000  0.00  0.00    +0.292 HD
ENDBRANCH  14  15
TORSDOF 3