REMARK  Name = 9441
REMARK  5 active torsions:
REMARK  status: ('A' for Active; 'I' for Inactive)
REMARK    1  A    between atoms: C_5  and  C_13
REMARK    2  A    between atoms: O_7  and  C_8
REMARK    3  A    between atoms: C_8  and  C_9
REMARK    4  A    between atoms: C_9  and  O_11
REMARK    5  A    between atoms: C_13  and  O_14
REMARK                            x       y       z     vdW  Elec       q    Type
REMARK                         _______ _______ _______ _____ _____    ______ ____
ROOT
ATOM      4  C   UNL     1      -2.939   0.353   0.000  0.00  0.00    +0.330 C 
ATOM      7  O   UNL     1      -3.701   1.645   0.000  0.00  0.00    -0.248 OA
ENDROOT
BRANCH   4   5
ATOM      5  O   UNL     1      -1.439   0.367   0.000  0.00  0.00    -0.479 OA
ATOM      6  H   UNL     1      -0.963  -0.440   0.000  0.00  0.00    +0.295 HD
ENDBRANCH   4   5
BRANCH   4   3
ATOM      3  C   UNL     1      -3.677  -0.953   0.000  0.00  0.00    +0.276 C 
BRANCH   3   1
ATOM      1  O   UNL     1      -2.915  -2.245   0.000  0.00  0.00    -0.384 OA
ATOM      2  H   UNL     1      -3.392  -3.089   0.000  0.00  0.00    +0.210 HD
ENDBRANCH   3   1
ENDBRANCH   4   3
TORSDOF 3