REMARK  Name = 96979
REMARK  5 active torsions:
REMARK  status: ('A' for Active; 'I' for Inactive)
REMARK    1  A    between atoms: N_1  and  C_6
REMARK    2  A    between atoms: C_6  and  C_7
REMARK    3  A    between atoms: C_7  and  C_8
REMARK    4  A    between atoms: C_8  and  C_9
REMARK    5  A    between atoms: C_9  and  C_10
REMARK                            x       y       z     vdW  Elec       q    Type
REMARK                         _______ _______ _______ _____ _____    ______ ____
ROOT
ATOM      2  C   UNL     1       5.174   2.099   0.000  0.00  0.00    +0.084 C 
ENDROOT
BRANCH   2   1
ATOM      1  N   UNL     1       3.747   1.636   0.000  0.00  0.00    -0.302 NA
ATOM      8  C   UNL     1       3.284   0.209   0.000  0.00  0.00    +0.084 C 
ATOM      9  C   UNL     1       1.784   0.209   0.000  0.00  0.00    +0.017 C 
ATOM     10  C   UNL     1       1.320   1.636   0.000  0.00  0.00    +0.017 C 
ATOM     11  C   UNL     1       2.534   2.517   0.000  0.00  0.00    +0.084 C 
ENDBRANCH   2   1
BRANCH   2   3
ATOM      3  C   UNL     1       6.288   1.095   0.000  0.00  0.00    +0.016 C 
BRANCH   3   4
ATOM      4  C   UNL     1       7.715   1.559   0.000  0.00  0.00    +0.016 C 
BRANCH   4   5
ATOM      5  C   UNL     1       8.830   0.555   0.000  0.00  0.00    +0.118 C 
BRANCH   5   6
ATOM      6  C   UNL     1      10.256   1.019   0.000  0.00  0.00    +0.063 C 
ATOM      7  N   UNL     1      11.683   1.482   0.000  0.00  0.00    -0.197 NA
ENDBRANCH   5   6
ENDBRANCH   4   5
ENDBRANCH   3   4
ENDBRANCH   2   3
TORSDOF 5