REMARK  Name = 98363
REMARK  10 active torsions:
REMARK  status: ('A' for Active; 'I' for Inactive)
REMARK    1  A    between atoms: O_6  and  C_7
REMARK    2  A    between atoms: O_6  and  C_9
REMARK    3  A    between atoms: C_7  and  C_8
REMARK    4  A    between atoms: C_9  and  C_11
REMARK    5  A    between atoms: C_11  and  C_12
REMARK    6  A    between atoms: C_14  and  C_15
REMARK    7  A    between atoms: C_14  and  C_17
REMARK    8  A    between atoms: C_17  and  O_19
REMARK    9  A    between atoms: O_19  and  C_20
REMARK   10  A    between atoms: C_20  and  C_21
REMARK                            x       y       z     vdW  Elec       q    Type
REMARK                         _______ _______ _______ _____ _____    ______ ____
ROOT
ATOM      1  S   UNL     1      -1.262   1.067   0.000  0.00  0.00    -0.043 S 
ATOM      2  C   UNL     1      -1.137  -0.428   0.000  0.00  0.00    +0.081 C 
ATOM      3  C   UNL     1      -2.272  -1.408   0.000  0.00  0.00    +0.156 C 
ATOM     11  S   UNL     1       0.324  -0.770   0.000  0.00  0.00    -0.071 S 
ATOM     12  C   UNL     1       1.101   0.513   0.000  0.00  0.00    +0.081 C 
ATOM     13  C   UNL     1       2.595   0.639   0.000  0.00  0.00    +0.156 C 
ATOM     21  S   UNL     1       0.120   1.648   0.000  0.00  0.00    -0.043 S 
ENDROOT
BRANCH   3   4
ATOM      4  C   UNL     1      -1.990  -2.882   0.000  0.00  0.00    +0.108 C 
ATOM      5  N   UNL     1      -1.709  -4.355   0.000  0.00  0.00    -0.191 NA
ENDBRANCH   3   4
BRANCH   3   6
ATOM      6  C   UNL     1      -3.688  -0.915   0.000  0.00  0.00    +0.351 C 
ATOM      7  O   UNL     1      -3.970   0.558   0.000  0.00  0.00    -0.244 OA
BRANCH   6   8
ATOM      8  O   UNL     1      -4.824  -1.896   0.000  0.00  0.00    -0.461 OA
BRANCH   8   9
ATOM      9  C   UNL     1      -6.240  -1.403   0.000  0.00  0.00    +0.229 C 
ATOM     10  C   UNL     1      -7.376  -2.383   0.000  0.00  0.00    +0.048 C 
ENDBRANCH   8   9
ENDBRANCH   6   8
ENDBRANCH   3   6
BRANCH  13  14
ATOM     14  C   UNL     1       3.234   1.996   0.000  0.00  0.00    +0.351 C 
ATOM     18  O   UNL     1       2.377   3.228   0.000  0.00  0.00    -0.244 OA
BRANCH  14  15
ATOM     15  O   UNL     1       4.728   2.122   0.000  0.00  0.00    -0.461 OA
BRANCH  15  16
ATOM     16  C   UNL     1       5.367   3.480   0.000  0.00  0.00    +0.229 C 
ATOM     17  C   UNL     1       6.862   3.606   0.000  0.00  0.00    +0.048 C 
ENDBRANCH  15  16
ENDBRANCH  14  15
ENDBRANCH  13  14
BRANCH  13  19
ATOM     19  C   UNL     1       3.452  -0.593   0.000  0.00  0.00    +0.108 C 
ATOM     20  N   UNL     1       4.308  -1.824   0.000  0.00  0.00    -0.191 NA
ENDBRANCH  13  19
TORSDOF 8