REMARK  Name = 93427
REMARK  2 active torsions:
REMARK  status: ('A' for Active; 'I' for Inactive)
REMARK    1  A    between atoms: C_2  and  C_20
REMARK    2  A    between atoms: C_3  and  C_6
REMARK                            x       y       z     vdW  Elec       q    Type
REMARK                         _______ _______ _______ _____ _____    ______ ____
ROOT
ATOM      1  N   UNL     1       3.240   6.388   0.000  0.00  0.00    -0.315 N 
ATOM      2  C   UNL     1       3.240   4.888   0.000  0.00  0.00    +0.092 A 
ATOM      3  C   UNL     1       1.941   4.138   0.000  0.00  0.00    +0.026 A 
ATOM      4  C   UNL     1       0.642   4.888   0.000  0.00  0.00    -0.015 A 
ATOM      5  C   UNL     1      -0.657   4.138   0.000  0.00  0.00    +0.008 A 
ATOM      6  C   UNL     1      -1.956   4.888   0.000  0.00  0.00    +0.001 A 
ATOM      7  C   UNL     1      -1.956   6.388   0.000  0.00  0.00    +0.001 A 
ATOM      8  C   UNL     1      -0.657   7.138   0.000  0.00  0.00    +0.010 A 
ATOM      9  C   UNL     1       0.642   6.388   0.000  0.00  0.00    +0.006 A 
ATOM     10  C   UNL     1       1.941   7.138   0.000  0.00  0.00    +0.055 A 
ATOM     11  C   UNL     1       2.253   8.606   0.000  0.00  0.00    +0.042 A 
ATOM     12  C   UNL     1       3.744   8.763   0.000  0.00  0.00    +0.063 A 
ATOM     18  C   UNL     1       4.354   7.392   0.000  0.00  0.00    +0.066 A 
ENDROOT
BRANCH  18  19
ATOM     19  C   UNL     1       5.822   7.080   0.000  0.00  0.00    -0.000 A 
ATOM     20  C   UNL     1       6.825   8.195   0.000  0.00  0.00    +0.010 A 
ATOM     21  C   UNL     1       8.293   7.883   0.000  0.00  0.00    +0.001 A 
ATOM     22  C   UNL     1       8.756   6.457   0.000  0.00  0.00    +0.000 A 
ATOM     23  C   UNL     1       7.753   5.342   0.000  0.00  0.00    +0.001 A 
ATOM     24  C   UNL     1       6.285   5.654   0.000  0.00  0.00    +0.010 A 
ENDBRANCH  18  19
BRANCH  12  13
ATOM     13  C   UNL     1       4.494  10.062   0.000  0.00  0.00    +0.244 C 
ATOM     14  N   UNL     1       5.994  10.062   0.000  0.00  0.00    -0.325 N 
ATOM     15  H   UNL     1       6.487  10.914   0.000  0.00  0.00    +0.145 HD
ATOM     16  H   UNL     1       6.487   9.209   0.000  0.00  0.00    +0.145 HD
ATOM     17  O   UNL     1       3.744  11.361   0.000  0.00  0.00    -0.270 OA
ENDBRANCH  12  13
TORSDOF 2