REMARK  Name = 97538
REMARK  6 active torsions:
REMARK  status: ('A' for Active; 'I' for Inactive)
REMARK    1  A    between atoms: C_2  and  C_6
REMARK    2  A    between atoms: C_6  and  N_7
REMARK    3  A    between atoms: N_7  and  C_8
REMARK    4  A    between atoms: C_8  and  C_9
REMARK    5  A    between atoms: C_9  and  C_10
REMARK    6  A    between atoms: C_10  and  C_11
REMARK                            x       y       z     vdW  Elec       q    Type
REMARK                         _______ _______ _______ _____ _____    ______ ____
ROOT
ATOM      6  C   UNL     1      -6.000  -1.964   0.000  0.00  0.00    +0.112 C 
ENDROOT
BRANCH   6   5
ATOM      1  O   UNL     1      -8.382  -0.750   0.000  0.00  0.00    -0.375 OA
ATOM      2  C   UNL     1      -9.808  -1.214   0.000  0.00  0.00    +0.160 C 
ATOM      3  C   UNL     1      -9.808  -2.713   0.000  0.00  0.00    +0.031 C 
ATOM      4  C   UNL     1      -8.382  -3.177   0.000  0.00  0.00    +0.035 C 
ATOM      5  C   UNL     1      -7.500  -1.964   0.000  0.00  0.00    +0.132 C 
ENDBRANCH   6   5
BRANCH   6   7
ATOM      7  N   UNL     1      -5.250  -3.263   0.000  0.00  0.00    -0.314 NA
ATOM      8  H   UNL     1      -5.760  -4.146   0.000  0.00  0.00    +0.122 HD
BRANCH   7   9
ATOM      9  C   UNL     1      -3.750  -3.263   0.000  0.00  0.00    +0.081 C 
BRANCH   9  10
ATOM     10  C   UNL     1      -3.000  -1.964   0.000  0.00  0.00    +0.015 C 
BRANCH  10  11
ATOM     11  C   UNL     1      -1.500  -1.964   0.000  0.00  0.00    -0.002 C 
ATOM     12  C   UNL     1      -0.750  -3.263   0.000  0.00  0.00    +0.004 C 
ENDBRANCH  10  11
ENDBRANCH   9  10
ENDBRANCH   7   9
ENDBRANCH   6   7
TORSDOF 5