REMARK  Name = 97104
REMARK  4 active torsions:
REMARK  status: ('A' for Active; 'I' for Inactive)
REMARK    1  A    between atoms: C_5  and  C_11
REMARK    2  A    between atoms: C_8  and  C_12
REMARK    3  A    between atoms: C_10  and  C_13
REMARK    4  A    between atoms: C_13  and  S_14
REMARK                            x       y       z     vdW  Elec       q    Type
REMARK                         _______ _______ _______ _____ _____    ______ ____
ROOT
ATOM      1  N   UNL     1      -3.882  -2.177   0.000  0.00  0.00    -0.341 N 
ATOM      2  H   UNL     1      -3.418  -0.750   0.000  0.00  0.00    +0.167 HD
ATOM      3  C   UNL     1      -3.000  -3.390   0.000  0.00  0.00    +0.118 A 
ATOM      7  N   UNL     1      -3.882  -4.604   0.000  0.00  0.00    -0.232 NA
ATOM      8  C   UNL     1      -5.308  -4.140   0.000  0.00  0.00    +0.089 A 
ATOM      9  C   UNL     1      -6.607  -4.890   0.000  0.00  0.00    +0.033 A 
ATOM     10  C   UNL     1      -7.906  -4.140   0.000  0.00  0.00    -0.045 A 
ATOM     11  C   UNL     1      -9.205  -4.890   0.000  0.00  0.00    +0.044 C 
ATOM     12  C   UNL     1      -7.906  -2.640   0.000  0.00  0.00    -0.045 A 
ATOM     13  C   UNL     1      -9.205  -1.890   0.000  0.00  0.00    +0.044 C 
ATOM     14  C   UNL     1      -6.607  -1.890   0.000  0.00  0.00    +0.031 A 
ATOM     15  C   UNL     1      -5.308  -2.640   0.000  0.00  0.00    +0.066 A 
ENDROOT
BRANCH   3   4
ATOM      4  C   UNL     1      -1.500  -3.390   0.000  0.00  0.00    +0.139 C 
BRANCH   4   5
ATOM      5  S   UNL     1      -0.750  -4.689   0.000  0.00  0.00    -0.170 S 
ATOM      6  H   UNL     1      -1.430  -5.867   0.000  0.00  0.00    +0.102 HD
ENDBRANCH   4   5
ENDBRANCH   3   4
TORSDOF 2