REMARK  Name = 98026
REMARK  8 active torsions:
REMARK  status: ('A' for Active; 'I' for Inactive)
REMARK    1  A    between atoms: O_3  and  C_9
REMARK    2  A    between atoms: O_3  and  C_15
REMARK    3  A    between atoms: C_5  and  C_14
REMARK    4  A    between atoms: C_14  and  C_16
REMARK    5  A    between atoms: C_15  and  C_17
REMARK    6  A    between atoms: C_17  and  O_19
REMARK    7  A    between atoms: C_20  and  C_21
REMARK    8  A    between atoms: C_20  and  C_22
REMARK                            x       y       z     vdW  Elec       q    Type
REMARK                         _______ _______ _______ _____ _____    ______ ____
ROOT
ATOM      1  O   UNL     1      -3.348  -7.500   0.000  0.00  0.00    -0.287 OA
ATOM      2  C   UNL     1      -2.049  -6.750   0.000  0.00  0.00    +0.194 C 
ATOM      3  C   UNL     1      -0.750  -7.500   0.000  0.00  0.00    +0.033 A 
ATOM      4  C   UNL     1      -0.750  -9.000   0.000  0.00  0.00    +0.012 A 
ATOM      5  C   UNL     1       0.549  -9.750   0.000  0.00  0.00    +0.001 A 
ATOM      6  C   UNL     1       1.848  -9.000   0.000  0.00  0.00    +0.001 A 
ATOM      7  C   UNL     1       1.848  -7.500   0.000  0.00  0.00    +0.012 A 
ATOM      8  C   UNL     1       0.549  -6.750   0.000  0.00  0.00    +0.036 A 
ATOM      9  C   UNL     1       0.549  -5.250   0.000  0.00  0.00    +0.228 C 
ATOM     10  C   UNL     1      -0.750  -4.500   0.000  0.00  0.00    +0.175 C 
ATOM     17  O   UNL     1       1.848  -4.500   0.000  0.00  0.00    -0.283 OA
ATOM     18  C   UNL     1      -2.049  -5.250   0.000  0.00  0.00    +0.049 C 
ENDROOT
BRANCH  10  11
ATOM     11  O   UNL     1      -0.750  -3.000   0.000  0.00  0.00    -0.477 OA
BRANCH  11  12
ATOM     12  C   UNL     1       0.659  -2.487   0.000  0.00  0.00    +0.349 C 
BRANCH  12  13
ATOM     13  C   UNL     1       0.920  -1.010   0.000  0.00  0.00    +0.343 C 
ATOM     16  O   UNL     1      -0.229  -0.046   0.000  0.00  0.00    -0.247 OA
BRANCH  13  14
ATOM     14  O   UNL     1       2.329  -0.497   0.000  0.00  0.00    -0.478 OA
ATOM     15  H   UNL     1       3.047  -1.099   0.000  0.00  0.00    +0.295 HD
ENDBRANCH  13  14
ENDBRANCH  12  13
ENDBRANCH  11  12
ENDBRANCH  10  11
BRANCH  18  19
ATOM     19  C   UNL     1      -3.348  -4.500   0.000  0.00  0.00    +0.070 C 
BRANCH  19  20
ATOM     20  C   UNL     1      -3.348  -3.000   0.000  0.00  0.00    -0.023 C 
ATOM     21  C   UNL     1      -2.049  -2.250   0.000  0.00  0.00    -0.079 C 
ATOM     22  C   UNL     1      -2.049  -0.750   0.000  0.00  0.00    +0.038 C 
ATOM     23  C   UNL     1      -0.750  -3.000   0.000  0.00  0.00    +0.038 C 
ENDBRANCH  19  20
ENDBRANCH  18  19
TORSDOF 6