REMARK  Name = 92892
REMARK  6 active torsions:
REMARK  status: ('A' for Active; 'I' for Inactive)
REMARK    1  A    between atoms: C_2  and  O_14
REMARK    2  A    between atoms: C_4  and  N_18
REMARK    3  A    between atoms: C_7  and  AS_15
REMARK    4  A    between atoms: C_10  and  C_19
REMARK    5  A    between atoms: AS_15  and  O_16
REMARK    6  A    between atoms: AS_15  and  O_17
REMARK                            x       y       z     vdW  Elec       q    Type
REMARK                         _______ _______ _______ _____ _____    ______ ____
ROOT
ATOM      7  C   UNL     1      -2.324 -10.025   0.000  0.00  0.00    +0.000 A 
ATOM      8  C   UNL     1      -3.623  -9.274   0.000  0.00  0.00    +0.000 A 
ATOM      9  C   UNL     1      -3.623  -7.774   0.000  0.00  0.00    +0.000 A 
ATOM     10  C   UNL     1      -2.324  -7.024   0.000  0.00  0.00    +0.000 A 
ATOM     13  C   UNL     1      -1.025  -7.774   0.000  0.00  0.00    +0.000 A 
ATOM     24  C   UNL     1      -1.025  -9.274   0.000  0.00  0.00    +0.000 A 
ENDROOT
BRANCH  13  14
ATOM     14  N   UNL     1       0.275  -7.024   0.000  0.00  0.00    +0.000 N 
ATOM     15  H   UNL     1       1.127  -7.517   0.000  0.00  0.00    +0.000 HD
ATOM     16  C   UNL     1       0.275  -5.524   0.000  0.00  0.00    +0.000 C 
ATOM     17  O   UNL     1      -1.025  -4.774   0.000  0.00  0.00    +0.000 OA
BRANCH  16  18
ATOM     18  C   UNL     1       1.574  -4.774   0.000  0.00  0.00    +0.000 A 
ATOM     19  C   UNL     1       2.873  -5.524   0.000  0.00  0.00    +0.000 A 
ATOM     20  C   UNL     1       4.172  -4.774   0.000  0.00  0.00    +0.000 A 
ATOM     21  C   UNL     1       4.172  -3.275   0.000  0.00  0.00    +0.000 A 
ATOM     22  C   UNL     1       2.873  -2.525   0.000  0.00  0.00    +0.000 A 
ATOM     23  C   UNL     1       1.574  -3.275   0.000  0.00  0.00    +0.000 A 
ENDBRANCH  16  18
ENDBRANCH  13  14
BRANCH   7   2
ATOM      1  O   UNL     1      -0.824 -11.525   0.000  0.00  0.00    +0.000 OA
ATOM      2 AS   UNL     1      -2.324 -11.525   0.000  0.00  0.00    +0.000 As
BRANCH   2   3
ATOM      3  O   UNL     1      -2.324 -13.025   0.000  0.00  0.00    +0.000 OA
ATOM      4  H   UNL     1      -3.164 -13.509   0.000  0.00  0.00    +0.000 HD
ENDBRANCH   2   3
BRANCH   2   5
ATOM      5  O   UNL     1      -3.824 -11.525   0.000  0.00  0.00    +0.000 OA
ATOM      6  H   UNL     1      -4.309 -10.684   0.000  0.00  0.00    +0.000 HD
ENDBRANCH   2   5
ENDBRANCH   7   2
BRANCH  10  11
ATOM     11  O   UNL     1      -2.324  -5.524   0.000  0.00  0.00    +0.000 OA
ATOM     12  H   UNL     1      -1.512  -5.056   0.000  0.00  0.00    +0.000 HD
ENDBRANCH  10  11
TORSDOF 6