REMARK  Name = 9341
REMARK  5 active torsions:
REMARK  status: ('A' for Active; 'I' for Inactive)
REMARK    1  A    between atoms: C_9  and  C_11
REMARK    2  A    between atoms: C_11  and  O_12
REMARK    3  A    between atoms: O_12  and  C_13
REMARK    4  A    between atoms: N_15  and  C_16
REMARK    5  A    between atoms: N_15  and  C_17
REMARK                            x       y       z     vdW  Elec       q    Type
REMARK                         _______ _______ _______ _____ _____    ______ ____
ROOT
ATOM      1  O   UNL     1      -5.471  -5.524   0.000  0.00  0.00    -0.478 OA
ATOM      2  C   UNL     1      -4.172  -6.274   0.000  0.00  0.00    +0.248 C 
ATOM     10  C   UNL     1      -4.172  -7.774   0.000  0.00  0.00    +0.277 C 
ATOM     11  O   UNL     1      -5.471  -8.524   0.000  0.00  0.00    -0.485 OA
ATOM     12  C   UNL     1      -6.770  -7.774   0.000  0.00  0.00    +0.162 A 
ATOM     13  C   UNL     1      -8.069  -8.524   0.000  0.00  0.00    +0.049 A 
ATOM     14  C   UNL     1      -9.368  -7.774   0.000  0.00  0.00    +0.004 A 
ATOM     15  C   UNL     1      -9.368  -6.274   0.000  0.00  0.00    +0.004 A 
ATOM     16  C   UNL     1      -8.069  -5.524   0.000  0.00  0.00    +0.049 A 
ATOM     17  C   UNL     1      -6.770  -6.274   0.000  0.00  0.00    +0.163 A 
ENDROOT
BRANCH   2   3
ATOM      3  C   UNL     1      -2.873  -5.524   0.000  0.00  0.00    +0.281 C 
BRANCH   3   4
ATOM      4  O   UNL     1      -1.573  -6.274   0.000  0.00  0.00    -0.446 OA
BRANCH   4   5
ATOM      5  C   UNL     1      -0.275  -5.524   0.000  0.00  0.00    +0.402 C 
ATOM      6  N   UNL     1      -0.275  -4.024   0.000  0.00  0.00    -0.274 N 
ATOM      7  C   UNL     1      -1.574  -3.275   0.000  0.00  0.00    +0.135 C 
ATOM      8  C   UNL     1       1.025  -3.275   0.000  0.00  0.00    +0.135 C 
ATOM      9  O   UNL     1       1.025  -6.274   0.000  0.00  0.00    -0.226 OA
ENDBRANCH   4   5
ENDBRANCH   3   4
ENDBRANCH   2   3
TORSDOF 3