REMARK  Name = 9852
REMARK  3 active torsions:
REMARK  status: ('A' for Active; 'I' for Inactive)
REMARK    1  A    between atoms: C_8  and  C_18
REMARK    2  A    between atoms: C_12  and  N_15
REMARK    3  A    between atoms: C_18  and  C_19
REMARK                            x       y       z     vdW  Elec       q    Type
REMARK                         _______ _______ _______ _____ _____    ______ ____
ROOT
ATOM      1  N   UNL     1      -5.105  -0.181   0.000  0.00  0.00    -0.354 N 
ATOM      2  H   UNL     1      -4.642   1.246   0.000  0.00  0.00    +0.166 HD
ATOM      3  C   UNL     1      -6.532  -0.644   0.000  0.00  0.00    +0.054 A 
ATOM      4  C   UNL     1      -7.831   0.106   0.000  0.00  0.00    +0.110 A 
ATOM      5  C   UNL     1      -9.130  -0.644   0.000  0.00  0.00    +0.275 A 
ATOM      9  C   UNL     1      -9.130  -2.144   0.000  0.00  0.00    +0.085 A 
ATOM     10  C   UNL     1      -7.831  -2.894   0.000  0.00  0.00    +0.017 A 
ATOM     11  C   UNL     1      -6.532  -2.144   0.000  0.00  0.00    +0.008 A 
ATOM     12  C   UNL     1      -5.105  -2.608   0.000  0.00  0.00    +0.011 A 
ATOM     13  C   UNL     1      -4.495  -3.978   0.000  0.00  0.00    -0.038 A 
ATOM     16  C   UNL     1      -3.003  -4.135   0.000  0.00  0.00    +0.004 A 
ATOM     17  C   UNL     1      -2.122  -2.922   0.000  0.00  0.00    +0.002 A 
ATOM     18  C   UNL     1      -2.732  -1.551   0.000  0.00  0.00    +0.026 A 
ATOM     19  C   UNL     1      -4.224  -1.394   0.000  0.00  0.00    +0.048 A 
ENDROOT
BRANCH   5   6
ATOM      6  N   UNL     1     -10.429   0.106   0.000  0.00  0.00    +0.080 N 
ATOM      7  O   UNL     1     -10.429   1.606   0.000  0.00  0.00    +0.041 OA
ATOM      8  O   UNL     1     -11.728  -0.644   0.000  0.00  0.00    -0.576 OA
ENDBRANCH   5   6
BRANCH  13  14
ATOM     14  C   UNL     1      -5.377  -5.192   0.000  0.00  0.00    +0.032 C 
ATOM     15  C   UNL     1      -6.869  -5.035   0.000  0.00  0.00    +0.009 C 
ENDBRANCH  13  14
TORSDOF 2