REMARK  Name = 99634
REMARK  7 active torsions:
REMARK  status: ('A' for Active; 'I' for Inactive)
REMARK    1  A    between atoms: C_1  and  O_13
REMARK    2  A    between atoms: C_3  and  N_18
REMARK    3  A    between atoms: C_6  and  N_15
REMARK    4  A    between atoms: C_8  and  S_19
REMARK    5  A    between atoms: C_10  and  C_22
REMARK    6  A    between atoms: O_13  and  C_14
REMARK    7  A    between atoms: N_18  and  S_19
REMARK                            x       y       z     vdW  Elec       q    Type
REMARK                         _______ _______ _______ _____ _____    ______ ____
ROOT
ATOM     12  N   UNL     1       1.674   7.399   0.000  0.00  0.00    -0.212 N 
ATOM     13  H   UNL     1       2.527   6.907   0.000  0.00  0.00    +0.174 HD
ENDROOT
BRANCH  12  11
ATOM      1  C   UNL     1      -0.924   7.399   0.000  0.00  0.00    +0.143 A 
ATOM      4  C   UNL     1      -2.223   6.649   0.000  0.00  0.00    +0.054 A 
ATOM      5  C   UNL     1      -2.223   5.149   0.000  0.00  0.00    +0.088 A 
ATOM      6  C   UNL     1      -0.924   4.399   0.000  0.00  0.00    +0.275 A 
ATOM     10  C   UNL     1       0.375   5.149   0.000  0.00  0.00    +0.112 A 
ATOM     11  C   UNL     1       0.375   6.649   0.000  0.00  0.00    +0.096 A 
BRANCH   6   7
ATOM      7  N   UNL     1      -0.924   2.900   0.000  0.00  0.00    +0.080 N 
ATOM      8  O   UNL     1       0.375   2.150   0.000  0.00  0.00    +0.041 OA
ATOM      9  O   UNL     1      -2.223   2.150   0.000  0.00  0.00    -0.576 OA
ENDBRANCH   6   7
BRANCH   1   2
ATOM      2  O   UNL     1      -0.924   8.899   0.000  0.00  0.00    -0.493 OA
ATOM      3  C   UNL     1      -2.223   9.649   0.000  0.00  0.00    +0.277 C 
ENDBRANCH   1   2
ENDBRANCH  12  11
BRANCH  12  14
ATOM     14  S   UNL     1       1.674   8.899   0.000  0.00  0.00    +0.072 S 
ATOM     15  O   UNL     1       3.174   8.899   0.000  0.00  0.00    -0.150 OA
ATOM     16  O   UNL     1       0.174   8.899   0.000  0.00  0.00    -0.150 OA
BRANCH  14  17
ATOM     17  C   UNL     1       1.674  10.400   0.000  0.00  0.00    +0.109 A 
ATOM     18  C   UNL     1       2.973  11.150   0.000  0.00  0.00    +0.029 A 
ATOM     19  C   UNL     1       2.973  12.650   0.000  0.00  0.00    +0.005 A 
ATOM     20  C   UNL     1       1.674  13.400   0.000  0.00  0.00    -0.050 A 
ATOM     21  C   UNL     1       1.674  14.900   0.000  0.00  0.00    +0.044 C 
ATOM     22  C   UNL     1       0.375  12.650   0.000  0.00  0.00    +0.005 A 
ATOM     23  C   UNL     1       0.375  11.150   0.000  0.00  0.00    +0.029 A 
ENDBRANCH  14  17
ENDBRANCH  12  14
TORSDOF 5