REMARK  Name = 97090
REMARK  1 active torsions:
REMARK  status: ('A' for Active; 'I' for Inactive)
REMARK    1  A    between atoms: C_4  and  N_12
REMARK                            x       y       z     vdW  Elec       q    Type
REMARK                         _______ _______ _______ _____ _____    ______ ____
ROOT
ATOM      1  O   UNL     1      -0.615   3.511   0.000  0.00  0.00    -0.268 OA
ATOM      2  C   UNL     1       0.685   4.261   0.000  0.00  0.00    +0.255 A 
ATOM      3  N   UNL     1       1.984   3.511   0.000  0.00  0.00    -0.291 N 
ATOM      4  H   UNL     1       1.984   2.011   0.000  0.00  0.00    +0.172 HD
ATOM      5  C   UNL     1       3.283   4.261   0.000  0.00  0.00    +0.235 A 
ATOM      6  N   UNL     1       4.709   3.798   0.000  0.00  0.00    -0.199 NA
ATOM      7  C   UNL     1       5.591   5.011   0.000  0.00  0.00    +0.247 A 
ATOM      8  N   UNL     1       4.709   6.225   0.000  0.00  0.00    -0.151 NA
ATOM      9  N   UNL     1       3.283   5.761   0.000  0.00  0.00    -0.184 N 
ATOM     10  C   UNL     1       1.984   6.511   0.000  0.00  0.00    +0.127 A 
ATOM     14  C   UNL     1       0.685   5.761   0.000  0.00  0.00    +0.113 A 
ENDROOT
BRANCH  10  11
ATOM     11  N   UNL     1       1.984   8.011   0.000  0.00  0.00    -0.343 N 
ATOM     12  H   UNL     1       1.131   8.503   0.000  0.00  0.00    +0.144 HD
ATOM     13  H   UNL     1       2.836   8.503   0.000  0.00  0.00    +0.144 HD
ENDBRANCH  10  11
TORSDOF 1