REMARK  Name = 98857
REMARK  0 active torsions:
REMARK  status: ('A' for Active; 'I' for Inactive)
REMARK                            x       y       z     vdW  Elec       q    Type
REMARK                         _______ _______ _______ _____ _____    ______ ____
ROOT
ATOM      1  C   UNL     1       0.750  -1.500   0.000  0.00  0.00    +0.001 A 
ATOM      2  C   UNL     1       0.750  -3.000   0.000  0.00  0.00    +0.010 A 
ATOM      3  C   UNL     1       2.049  -3.750   0.000  0.00  0.00    +0.006 A 
ATOM      4  C   UNL     1       2.049  -5.250   0.000  0.00  0.00    -0.006 A 
ATOM      5  C   UNL     1       3.348  -6.000   0.000  0.00  0.00    +0.013 A 
ATOM      6  C   UNL     1       3.348  -7.500   0.000  0.00  0.00    +0.011 A 
ATOM      7  C   UNL     1       2.049  -8.250   0.000  0.00  0.00    +0.001 A 
ATOM      8  C   UNL     1       0.750  -7.500   0.000  0.00  0.00    +0.001 A 
ATOM      9  C   UNL     1       4.647  -5.250   0.000  0.00  0.00    +0.092 A 
ATOM     10  S   UNL     1       5.946  -6.000   0.000  0.00  0.00    -0.032 S 
ATOM     11  N   UNL     1       4.647  -3.750   0.000  0.00  0.00    -0.348 N 
ATOM     12  H   UNL     1       5.946  -3.000   0.000  0.00  0.00    +0.166 HD
ATOM     13  C   UNL     1       0.750  -6.000   0.000  0.00  0.00    +0.009 A 
ATOM     14  C   UNL     1       3.348  -3.000   0.000  0.00  0.00    +0.048 A 
ATOM     15  C   UNL     1       3.348  -1.500   0.000  0.00  0.00    +0.026 A 
ATOM     16  C   UNL     1       2.049  -0.750   0.000  0.00  0.00    +0.002 A 
ENDROOT
TORSDOF 0