REMARK  Name = 95916
REMARK  7 active torsions:
REMARK  status: ('A' for Active; 'I' for Inactive)
REMARK    1  A    between atoms: N_2  and  C_19
REMARK    2  A    between atoms: N_4  and  C_20
REMARK    3  A    between atoms: C_13  and  C_23
REMARK    4  A    between atoms: C_14  and  N_24
REMARK    5  A    between atoms: C_17  and  C_21
REMARK    6  A    between atoms: C_21  and  C_22
REMARK    7  A    between atoms: C_22  and  C_23
REMARK                            x       y       z     vdW  Elec       q    Type
REMARK                         _______ _______ _______ _____ _____    ______ ____
ROOT
ATOM      1  O   UNL     1       0.750   4.446   0.000  0.00  0.00    -0.246 OA
ATOM      2  C   UNL     1       2.049   5.196   0.000  0.00  0.00    +0.333 A 
ATOM      3  N   UNL     1       3.348   4.446   0.000  0.00  0.00    -0.280 N 
ATOM      4  C   UNL     1       3.348   2.946   0.000  0.00  0.00    +0.155 C 
ATOM      5  C   UNL     1       4.647   5.196   0.000  0.00  0.00    +0.168 A 
ATOM      6  C   UNL     1       4.647   6.696   0.000  0.00  0.00    +0.149 A 
ATOM      7  C   UNL     1       3.348   7.446   0.000  0.00  0.00    +0.282 A 
ATOM      8  O   UNL     1       3.348   8.946   0.000  0.00  0.00    -0.265 OA
ATOM      9  N   UNL     1       6.074   7.160   0.000  0.00  0.00    -0.336 N 
ATOM     10  H   UNL     1       6.537   8.586   0.000  0.00  0.00    +0.167 HD
ATOM     11  C   UNL     1       6.955   5.946   0.000  0.00  0.00    +0.110 A 
ATOM     24  N   UNL     1       6.074   4.733   0.000  0.00  0.00    -0.214 NA
ATOM     25  N   UNL     1       2.049   6.696   0.000  0.00  0.00    -0.262 N 
ATOM     26  C   UNL     1       0.750   7.446   0.000  0.00  0.00    +0.157 C 
ENDROOT
BRANCH  11  12
ATOM     12  C   UNL     1       8.455   5.946   0.000  0.00  0.00    +0.074 C 
BRANCH  12  13
ATOM     13  C   UNL     1       9.205   7.245   0.000  0.00  0.00    +0.012 C 
BRANCH  13  14
ATOM     14  C   UNL     1      10.705   7.245   0.000  0.00  0.00    +0.035 C 
BRANCH  14  15
ATOM     15  C   UNL     1      11.455   5.946   0.000  0.00  0.00    -0.047 A 
ATOM     16  C   UNL     1      10.705   4.647   0.000  0.00  0.00    +0.010 A 
ATOM     17  C   UNL     1      11.455   3.348   0.000  0.00  0.00    +0.084 A 
ATOM     18  C   UNL     1      12.955   3.348   0.000  0.00  0.00    +0.273 A 
ATOM     22  C   UNL     1      13.705   4.647   0.000  0.00  0.00    +0.084 A 
ATOM     23  C   UNL     1      12.955   5.946   0.000  0.00  0.00    +0.010 A 
BRANCH  18  19
ATOM     19  N   UNL     1      13.705   2.049   0.000  0.00  0.00    +0.080 N 
ATOM     20  O   UNL     1      12.955   0.750   0.000  0.00  0.00    +0.041 OA
ATOM     21  O   UNL     1      15.205   2.049   0.000  0.00  0.00    -0.576 OA
ENDBRANCH  18  19
ENDBRANCH  14  15
ENDBRANCH  13  14
ENDBRANCH  12  13
ENDBRANCH  11  12
TORSDOF 5