REMARK  Name = 99925
REMARK  5 active torsions:
REMARK  status: ('A' for Active; 'I' for Inactive)
REMARK    1  A    between atoms: C_5  and  C_11
REMARK    2  A    between atoms: C_9  and  N_18
REMARK    3  A    between atoms: C_10  and  O_19
REMARK    4  A    between atoms: O_19  and  C_20
REMARK    5  A    between atoms: C_21  and  C_23
REMARK                            x       y       z     vdW  Elec       q    Type
REMARK                         _______ _______ _______ _____ _____    ______ ____
ROOT
ATOM      1  O   UNL     1      -3.536   8.694   0.000  0.00  0.00    -0.334 OA
ATOM      2  C   UNL     1      -3.000   9.843   0.000  0.00  0.00    +0.220 C 
ATOM      3  C   UNL     1      -3.750   8.544   0.000  0.00  0.00    +0.189 C 
ATOM      4  C   UNL     1      -3.000   7.245   0.000  0.00  0.00    +0.198 C 
ATOM     15  C   UNL     1      -1.500   7.245   0.000  0.00  0.00    +0.278 C 
ATOM     18  O   UNL     1      -0.750   8.544   0.000  0.00  0.00    -0.340 OA
ATOM     19  O   UNL     1      -5.250   8.544   0.000  0.00  0.00    -0.292 OA
ATOM     20  C   UNL     1      -1.500   9.843   0.000  0.00  0.00    +0.183 C 
ATOM     21  C   UNL     1      -2.250  11.142   0.000  0.00  0.00    +0.198 C 
ATOM     22  O   UNL     1      -3.750  11.142   0.000  0.00  0.00    -0.344 OA
ATOM     23  C   UNL     1      -4.500   9.843   0.000  0.00  0.00    +0.283 C 
ENDROOT
BRANCH  23  24
ATOM     24  C   UNL     1      -5.994   9.713   0.000  0.00  0.00    +0.008 A 
ATOM     25  C   UNL     1      -6.855  10.941   0.000  0.00  0.00    +0.008 A 
ATOM     26  C   UNL     1      -8.349  10.810   0.000  0.00  0.00    +0.000 A 
ATOM     27  C   UNL     1      -8.983   9.451   0.000  0.00  0.00    +0.000 A 
ATOM     28  C   UNL     1      -8.123   8.222   0.000  0.00  0.00    +0.000 A 
ATOM     29  C   UNL     1      -6.628   8.353   0.000  0.00  0.00    +0.008 A 
ENDBRANCH  23  24
BRANCH   4   5
ATOM      5  N   UNL     1      -3.750   5.946   0.000  0.00  0.00    -0.297 N 
ATOM      6  H   UNL     1      -3.258   5.094   0.000  0.00  0.00    +0.150 HD
ATOM      7  C   UNL     1      -5.250   5.946   0.000  0.00  0.00    +0.245 C 
ATOM     14  O   UNL     1      -6.000   7.245   0.000  0.00  0.00    -0.270 OA
BRANCH   7   8
ATOM      8  C   UNL     1      -6.000   4.647   0.000  0.00  0.00    +0.037 A 
ATOM      9  C   UNL     1      -5.250   3.348   0.000  0.00  0.00    +0.013 A 
ATOM     10  C   UNL     1      -6.000   2.049   0.000  0.00  0.00    +0.001 A 
ATOM     11  C   UNL     1      -7.500   2.049   0.000  0.00  0.00    +0.000 A 
ATOM     12  C   UNL     1      -8.250   3.348   0.000  0.00  0.00    +0.001 A 
ATOM     13  C   UNL     1      -7.500   4.647   0.000  0.00  0.00    +0.013 A 
ENDBRANCH   7   8
ENDBRANCH   4   5
BRANCH  15  16
ATOM     16  O   UNL     1      -0.750   5.946   0.000  0.00  0.00    -0.352 OA
ATOM     17  C   UNL     1      -1.500   4.647   0.000  0.00  0.00    +0.197 C 
ENDBRANCH  15  16
TORSDOF 4