REMARK  Name = NSC 136035#1
REMARK  8 active torsions:
REMARK  status: ('A' for Active; 'I' for Inactive)
REMARK    1  A    between atoms: N_1  and  C_2
REMARK    2  A    between atoms: C_2  and  C_3
REMARK    3  A    between atoms: C_3  and  O_4
REMARK    4  A    between atoms: O_4  and  C_5
REMARK    5  A    between atoms: C_5  and  C_6
REMARK    6  A    between atoms: C_6  and  C_7
REMARK    7  A    between atoms: C_6  and  N_10
REMARK    8  A    between atoms: C_7  and  O_8
REMARK                            x       y       z     vdW  Elec       q    Type
REMARK                         _______ _______ _______ _____ _____    ______ ____
ROOT
ATOM      8  C   UNK     1      -7.774   1.025   0.000  0.00  0.00    +0.186 C 
ENDROOT
BRANCH   8  13
ATOM     13  N   UNK     1      -9.274   1.025   0.000  0.00  0.00    -0.317 NA
ATOM     14  H   UNK     1      -9.784   0.141   0.000  0.00  0.00    +0.119 HD
ATOM     15  H   UNK     1      -9.784   1.908   0.000  0.00  0.00    +0.119 HD
ENDBRANCH   8  13
BRANCH   8   9
ATOM      9  C   UNK     1      -7.024   2.324   0.000  0.00  0.00    +0.324 C 
ATOM     12  O   UNK     1      -5.524   2.324   0.000  0.00  0.00    -0.249 OA
BRANCH   9  10
ATOM     10  O   UNK     1      -7.774   3.623   0.000  0.00  0.00    -0.479 OA
ATOM     11  H   UNK     1      -7.306   4.434   0.000  0.00  0.00    +0.295 HD
ENDBRANCH   9  10
ENDBRANCH   8   9
BRANCH   8   7
ATOM      7  C   UNK     1      -7.024  -0.275   0.000  0.00  0.00    +0.189 C 
BRANCH   7   6
ATOM      6  O   UNK     1      -5.524  -0.275   0.000  0.00  0.00    -0.376 OA
BRANCH   6   5
ATOM      5  C   UNK     1      -4.774  -1.574   0.000  0.00  0.00    +0.174 C 
BRANCH   5   4
ATOM      4  C   UNK     1      -3.275  -1.574   0.000  0.00  0.00    +0.105 C 
BRANCH   4   1
ATOM      1  N   UNK     1      -2.525  -2.873   0.000  0.00  0.00    -0.328 NA
ATOM      2  H   UNK     1      -1.505  -2.873   0.000  0.00  0.00    +0.118 HD
ATOM      3  H   UNK     1      -3.034  -3.756   0.000  0.00  0.00    +0.118 HD
ENDBRANCH   4   1
ENDBRANCH   5   4
ENDBRANCH   6   5
ENDBRANCH   7   6
ENDBRANCH   8   7
TORSDOF 8