REMARK  Name = NSC 13252#2
REMARK  0 active torsions:
REMARK  status: ('A' for Active; 'I' for Inactive)
REMARK                            x       y       z     vdW  Elec       q    Type
REMARK                         _______ _______ _______ _____ _____    ______ ____
ROOT
ATOM      1 CL   UNL     1       7.245   9.309   0.000  0.00  0.00    -0.145 Cl
ATOM      2  H   UNL     1       8.575   9.309   0.000  0.00  0.00    +0.145 HD
ENDROOT
TORSDOF 0