REMARK  Name = NSC 150817
REMARK  18 active torsions:
REMARK  status: ('A' for Active; 'I' for Inactive)
REMARK    1  A    between atoms: C_2  and  C_3
REMARK    2  A    between atoms: C_4  and  C_5
REMARK    3  A    between atoms: C_6  and  O_7
REMARK    4  A    between atoms: C_8  and  C_9
REMARK    5  A    between atoms: C_24  and  O_52
REMARK    6  A    between atoms: C_27  and  C_28
REMARK    7  A    between atoms: C_28  and  O_30
REMARK    8  A    between atoms: C_31  and  O_32
REMARK    9  A    between atoms: C_36  and  O_37
REMARK   10  A    between atoms: C_38  and  O_39
REMARK   11  A    between atoms: C_42  and  O_43
REMARK   12  A    between atoms: C_45  and  O_46
REMARK   13  A    between atoms: C_48  and  O_49
REMARK   14  A    between atoms: O_52  and  C_53
REMARK   15  A    between atoms: C_54  and  O_55
REMARK   16  A    between atoms: C_56  and  N_57
REMARK   17  A    between atoms: C_58  and  O_59
REMARK   18  A    between atoms: C_60  and  C_61
REMARK                            x       y       z     vdW  Elec       q    Type
REMARK                         _______ _______ _______ _____ _____    ______ ____
ROOT
ATOM      1  O   UNL     1       2.049   6.750   0.000  0.00  0.00    -0.461 OA
ATOM      2  C   UNL     1       2.049   5.250   0.000  0.00  0.00    +0.179 C 
ATOM      3  C   UNL     1       0.750   4.500   0.000  0.00  0.00    +0.052 C 
ATOM      4  C   UNL     1       3.348   4.500   0.000  0.00  0.00    +0.055 C 
ATOM      5  C   UNL     1       4.647   5.250   0.000  0.00  0.00    +0.014 C 
ATOM      6  C   UNL     1       3.348   3.000   0.000  0.00  0.00    +0.127 C 
ATOM      9  C   UNL     1       4.647   2.250   0.000  0.00  0.00    +0.038 C 
ATOM     10  C   UNL     1       4.647   0.750   0.000  0.00  0.00    +0.014 C 
ATOM     11  C   UNL     1       5.946   3.000   0.000  0.00  0.00    -0.021 C 
ATOM     12  C   UNL     1       7.245   2.250   0.000  0.00  0.00    -0.004 C 
ATOM     13  C   UNL     1       8.544   3.000   0.000  0.00  0.00    -0.005 C 
ATOM     14  C   UNL     1       9.843   2.250   0.000  0.00  0.00    -0.027 C 
ATOM     15  C   UNL     1      11.142   3.000   0.000  0.00  0.00    +0.031 C 
ATOM     16  C   UNL     1      12.441   2.250   0.000  0.00  0.00    +0.031 C 
ATOM     17  C   UNL     1      13.740   3.000   0.000  0.00  0.00    -0.027 C 
ATOM     18  C   UNL     1      15.039   2.250   0.000  0.00  0.00    -0.004 C 
ATOM     19  C   UNL     1      16.339   3.000   0.000  0.00  0.00    -0.000 C 
ATOM     20  C   UNL     1      17.637   2.250   0.000  0.00  0.00    -0.000 C 
ATOM     21  C   UNL     1      18.936   3.000   0.000  0.00  0.00    -0.000 C 
ATOM     22  C   UNL     1      18.936   4.500   0.000  0.00  0.00    -0.000 C 
ATOM     23  C   UNL     1      20.236   5.250   0.000  0.00  0.00    -0.002 C 
ATOM     24  C   UNL     1      20.236   6.750   0.000  0.00  0.00    +0.004 C 
ATOM     25  C   UNL     1      21.535   7.500   0.000  0.00  0.00    +0.147 C 
ATOM     26  C   UNL     1      21.535   9.000   0.000  0.00  0.00    +0.068 C 
ATOM     27  C   UNL     1      20.236   9.750   0.000  0.00  0.00    +0.138 C 
ATOM     28  C   UNL     1      20.236  11.250   0.000  0.00  0.00    +0.155 C 
ATOM     33  C   UNL     1      18.936  12.000   0.000  0.00  0.00    +0.133 C 
ATOM     36  C   UNL     1      17.637  11.250   0.000  0.00  0.00    +0.064 C 
ATOM     37  C   UNL     1      17.637   9.750   0.000  0.00  0.00    +0.124 C 
ATOM     38  C   UNL     1      16.339   9.000   0.000  0.00  0.00    +0.065 C 
ATOM     39  C   UNL     1      15.039   9.750   0.000  0.00  0.00    +0.145 C 
ATOM     42  C   UNL     1      13.740   9.000   0.000  0.00  0.00    +0.143 C 
ATOM     45  C   UNL     1      12.441   9.750   0.000  0.00  0.00    +0.036 C 
ATOM     46  C   UNL     1      11.142   9.000   0.000  0.00  0.00    +0.034 C 
ATOM     47  C   UNL     1       9.843   9.750   0.000  0.00  0.00    +0.117 C 
ATOM     50  C   UNL     1       8.544   9.000   0.000  0.00  0.00    +0.062 C 
ATOM     51  C   UNL     1       7.245   9.750   0.000  0.00  0.00    +0.119 C 
ATOM     54  C   UNL     1       5.946   9.000   0.000  0.00  0.00    +0.063 C 
ATOM     55  C   UNL     1       4.647   9.750   0.000  0.00  0.00    +0.128 C 
ATOM     58  C   UNL     1       3.348   9.000   0.000  0.00  0.00    +0.152 C 
ATOM     59  O   UNL     1      18.936   9.000   0.000  0.00  0.00    -0.372 OA
ATOM     75  C   UNL     1       3.348   7.500   0.000  0.00  0.00    +0.310 C 
ATOM     76  O   UNL     1       4.647   6.750   0.000  0.00  0.00    -0.251 OA
ENDROOT
BRANCH   6   7
ATOM      7  O   UNL     1       2.049   2.250   0.000  0.00  0.00    -0.391 OA
ATOM      8  H   UNL     1       1.209   2.735   0.000  0.00  0.00    +0.210 HD
ENDBRANCH   6   7
BRANCH  28  29
ATOM     29  C   UNL     1      21.535  12.000   0.000  0.00  0.00    +0.313 C 
ATOM     30  O   UNL     1      21.535  13.500   0.000  0.00  0.00    -0.251 OA
BRANCH  29  31
ATOM     31  O   UNL     1      22.834  11.250   0.000  0.00  0.00    -0.480 OA
ATOM     32  H   UNL     1      22.834  10.313   0.000  0.00  0.00    +0.295 HD
ENDBRANCH  29  31
ENDBRANCH  28  29
BRANCH  33  34
ATOM     34  O   UNL     1      18.936  13.500   0.000  0.00  0.00    -0.391 OA
ATOM     35  H   UNL     1      19.777  13.985   0.000  0.00  0.00    +0.210 HD
ENDBRANCH  33  34
BRANCH  39  40
ATOM     40  O   UNL     1      15.039  11.250   0.000  0.00  0.00    -0.389 OA
ATOM     41  H   UNL     1      15.879  11.735   0.000  0.00  0.00    +0.210 HD
ENDBRANCH  39  40
BRANCH  42  43
ATOM     43  O   UNL     1      13.740   7.500   0.000  0.00  0.00    -0.389 OA
ATOM     44  H   UNL     1      12.900   7.015   0.000  0.00  0.00    +0.210 HD
ENDBRANCH  42  43
BRANCH  47  48
ATOM     48  O   UNL     1       9.843  11.250   0.000  0.00  0.00    -0.392 OA
ATOM     49  H   UNL     1      10.683  11.735   0.000  0.00  0.00    +0.210 HD
ENDBRANCH  47  48
BRANCH  51  52
ATOM     52  O   UNL     1       7.245  11.250   0.000  0.00  0.00    -0.392 OA
ATOM     53  H   UNL     1       8.085  11.735   0.000  0.00  0.00    +0.210 HD
ENDBRANCH  51  52
BRANCH  55  56
ATOM     56  O   UNL     1       4.647  11.250   0.000  0.00  0.00    -0.391 OA
ATOM     57  H   UNL     1       5.487  11.735   0.000  0.00  0.00    +0.210 HD
ENDBRANCH  55  56
BRANCH  25  60
ATOM     60  O   UNL     1      22.834   6.750   0.000  0.00  0.00    -0.341 OA
BRANCH  60  61
ATOM     61  C   UNL     1      22.834   5.250   0.000  0.00  0.00    +0.281 C 
ATOM     62  C   UNL     1      24.133   4.500   0.000  0.00  0.00    +0.189 C 
ATOM     65  C   UNL     1      24.133   3.000   0.000  0.00  0.00    +0.116 C 
ATOM     69  C   UNL     1      22.834   2.250   0.000  0.00  0.00    +0.162 C 
ATOM     72  C   UNL     1      21.535   3.000   0.000  0.00  0.00    +0.148 C 
ATOM     73  C   UNL     1      22.834   3.750   0.000  0.00  0.00    +0.041 C 
ATOM     74  O   UNL     1      21.535   4.500   0.000  0.00  0.00    -0.343 OA
BRANCH  65  66
ATOM     66  N   UNL     1      25.432   2.250   0.000  0.00  0.00    -0.323 NA
ATOM     67  H   UNL     1      26.315   2.760   0.000  0.00  0.00    +0.119 HD
ATOM     68  H   UNL     1      25.432   1.230   0.000  0.00  0.00    +0.119 HD
ENDBRANCH  65  66
BRANCH  62  63
ATOM     63  O   UNL     1      25.432   5.250   0.000  0.00  0.00    -0.385 OA
ATOM     64  H   UNL     1      26.272   4.765   0.000  0.00  0.00    +0.210 HD
ENDBRANCH  62  63
BRANCH  69  70
ATOM     70  O   UNL     1      22.834   0.750   0.000  0.00  0.00    -0.388 OA
ATOM     71  H   UNL     1      21.994   0.265   0.000  0.00  0.00    +0.210 HD
ENDBRANCH  69  70
ENDBRANCH  60  61
ENDBRANCH  25  60
TORSDOF 14