REMARK  Name = NSC 179834
REMARK  10 active torsions:
REMARK  status: ('A' for Active; 'I' for Inactive)
REMARK    1  A    between atoms: C_11  and  O_12
REMARK    2  A    between atoms: C_15  and  O_16
REMARK    3  A    between atoms: C_15  and  C_17
REMARK    4  A    between atoms: C_17  and  O_18
REMARK    5  A    between atoms: C_17  and  C_19
REMARK    6  A    between atoms: C_17  and  C_20
REMARK    7  A    between atoms: C_22  and  C_23
REMARK    8  A    between atoms: C_24  and  C_25
REMARK    9  A    between atoms: C_30  and  C_31
REMARK   10  A    between atoms: C_37  and  C_38
REMARK                            x       y       z     vdW  Elec       q    Type
REMARK                         _______ _______ _______ _____ _____    ______ ____
ROOT
ATOM      1  O   UNL     1      -4.739  -9.707   0.000  0.00  0.00    -0.292 OA
ATOM      2  C   UNL     1      -4.739 -11.208   0.000  0.00  0.00    +0.165 C 
ATOM      3  C   UNL     1      -6.038 -11.958   0.000  0.00  0.00    +0.043 C 
ATOM      4  C   UNL     1      -6.038 -13.458   0.000  0.00  0.00    -0.020 C 
ATOM      5  C   UNL     1      -4.739 -14.208   0.000  0.00  0.00    +0.066 C 
ATOM      6  C   UNL     1      -3.439 -13.458   0.000  0.00  0.00    +0.112 C 
ATOM      7  O   UNL     1      -3.439 -14.958   0.000  0.00  0.00    -0.363 OA
ATOM      8  C   UNL     1      -2.140 -14.208   0.000  0.00  0.00    +0.153 C 
ATOM      9  C   UNL     1      -0.842 -13.458   0.000  0.00  0.00    +0.041 C 
ATOM     10  C   UNL     1      -0.842 -11.958   0.000  0.00  0.00    +0.028 C 
ATOM     11  C   UNL     1       0.458 -11.208   0.000  0.00  0.00    +0.077 C 
ATOM     14  C   UNL     1       1.884 -11.671   0.000  0.00  0.00    +0.038 C 
ATOM     15  C   UNL     1       2.766 -10.458   0.000  0.00  0.00    +0.041 C 
ATOM     16  C   UNL     1       1.884  -9.244   0.000  0.00  0.00    +0.106 C 
ATOM     32  C   UNL     1       0.458  -9.707   0.000  0.00  0.00    +0.029 C 
ATOM     33  C   UNL     1       0.614  -8.216   0.000  0.00  0.00    +0.017 C 
ATOM     34  C   UNL     1      -0.842  -8.957   0.000  0.00  0.00    +0.013 C 
ATOM     35  C   UNL     1      -2.140  -9.707   0.000  0.00  0.00    +0.006 C 
ATOM     36  C   UNL     1      -2.140 -11.208   0.000  0.00  0.00    +0.011 C 
ATOM     37  C   UNL     1      -3.439 -11.958   0.000  0.00  0.00    +0.065 C 
ATOM     38  C   UNL     1      -3.439 -10.458   0.000  0.00  0.00    +0.023 C 
ENDROOT
BRANCH  11  12
ATOM     12  O   UNL     1       0.614 -12.699   0.000  0.00  0.00    -0.388 OA
ATOM     13  H   UNL     1      -0.170 -13.269   0.000  0.00  0.00    +0.210 HD
ENDBRANCH  11  12
BRANCH  16  17
ATOM     17  O   UNL     1       3.183  -8.494   0.000  0.00  0.00    -0.385 OA
ATOM     18  H   UNL     1       4.023  -8.979   0.000  0.00  0.00    +0.210 HD
ENDBRANCH  16  17
BRANCH  16  19
ATOM     19  C   UNL     1       1.285  -6.843   0.000  0.00  0.00    +0.129 C 
ATOM     22  C   UNL     1      -0.170  -7.205   0.000  0.00  0.00    +0.048 C 
BRANCH  19  23
ATOM     23  C   UNL     1       2.167  -5.629   0.000  0.00  0.00    +0.215 C 
ATOM     24  C   UNL     1       0.819  -4.971   0.000  0.00  0.00    +0.078 C 
ATOM     25  C   UNL     1       0.714  -3.475   0.000  0.00  0.00    -0.059 C 
ATOM     26  C   UNL     1      -0.634  -2.817   0.000  0.00  0.00    +0.039 C 
ATOM     27  C   UNL     1       1.958  -2.636   0.000  0.00  0.00    +0.033 C 
ATOM     28  C   UNL     1       1.853  -1.140   0.000  0.00  0.00    +0.051 C 
ATOM     29  C   UNL     1       3.306  -3.294   0.000  0.00  0.00    +0.335 C 
ATOM     30  O   UNL     1       4.550  -2.455   0.000  0.00  0.00    -0.245 OA
ATOM     31  O   UNL     1       3.411  -4.790   0.000  0.00  0.00    -0.455 OA
ENDBRANCH  19  23
BRANCH  19  20
ATOM     20  O   UNL     1       0.243  -5.763   0.000  0.00  0.00    -0.382 OA
ATOM     21  H   UNL     1       0.511  -4.831   0.000  0.00  0.00    +0.210 HD
ENDBRANCH  19  20
ENDBRANCH  16  19
TORSDOF 5