REMARK  Name = NSC 146396
REMARK  7 active torsions:
REMARK  status: ('A' for Active; 'I' for Inactive)
REMARK    1  A    between atoms: C_14  and  O_15
REMARK    2  A    between atoms: O_15  and  C_16
REMARK    3  A    between atoms: C_17  and  O_18
REMARK    4  A    between atoms: O_18  and  C_19
REMARK    5  A    between atoms: C_22  and  O_23
REMARK    6  A    between atoms: O_23  and  C_24
REMARK    7  A    between atoms: N_25  and  C_26
REMARK                            x       y       z     vdW  Elec       q    Type
REMARK                         _______ _______ _______ _____ _____    ______ ____
ROOT
ATOM      1  O   UNL     1     -15.900   1.709   0.000  0.00  0.00    -0.453 OA
ATOM      2  C   UNL     1     -15.900   3.209   0.000  0.00  0.00    +0.466 C 
ATOM      3  O   UNL     1     -14.474   3.672   0.000  0.00  0.00    -0.453 OA
ATOM      4  C   UNL     1     -13.592   2.459   0.000  0.00  0.00    +0.167 A 
ATOM      5  C   UNL     1     -12.100   2.302   0.000  0.00  0.00    +0.060 A 
ATOM      6  C   UNL     1     -11.490   0.932   0.000  0.00  0.00    +0.007 A 
ATOM      7  C   UNL     1     -12.372  -0.282   0.000  0.00  0.00    -0.012 A 
ATOM      8  C   UNL     1     -13.864  -0.125   0.000  0.00  0.00    +0.058 A 
ATOM      9  C   UNL     1     -11.762  -1.652   0.000  0.00  0.00    +0.009 A 
ATOM     10  C   UNL     1     -10.270  -1.809   0.000  0.00  0.00    +0.011 A 
ATOM     11  C   UNL     1      -9.388  -0.596   0.000  0.00  0.00    +0.004 A 
ATOM     12  C   UNL     1      -7.896  -0.752   0.000  0.00  0.00    -0.005 A 
ATOM     13  C   UNL     1      -7.286  -2.123   0.000  0.00  0.00    +0.058 A 
ATOM     14  C   UNL     1      -5.795  -2.279   0.000  0.00  0.00    +0.162 A 
ATOM     17  C   UNL     1      -4.913  -1.066   0.000  0.00  0.00    +0.162 A 
ATOM     20  C   UNL     1      -5.523   0.304   0.000  0.00  0.00    +0.057 A 
ATOM     21  C   UNL     1      -7.015   0.461   0.000  0.00  0.00    +0.011 A 
ATOM     22  C   UNL     1      -7.625   1.831   0.000  0.00  0.00    +0.238 C 
ATOM     25  N   UNL     1      -9.117   1.988   0.000  0.00  0.00    -0.303 N 
ATOM     26  C   UNL     1      -9.727   3.359   0.000  0.00  0.00    +0.132 C 
ATOM     27  C   UNL     1      -9.998   0.775   0.000  0.00  0.00    +0.047 A 
ATOM     28  C   UNL     1     -14.474   1.245   0.000  0.00  0.00    +0.167 A 
ENDROOT
BRANCH  14  15
ATOM     15  O   UNL     1      -5.184  -3.650   0.000  0.00  0.00    -0.491 OA
ATOM     16  C   UNL     1      -3.693  -3.807   0.000  0.00  0.00    +0.277 C 
ENDBRANCH  14  15
BRANCH  17  18
ATOM     18  O   UNL     1      -3.421  -1.223   0.000  0.00  0.00    -0.491 OA
ATOM     19  C   UNL     1      -2.811  -2.593   0.000  0.00  0.00    +0.277 C 
ENDBRANCH  17  18
BRANCH  22  23
ATOM     23  O   UNL     1      -6.743   3.045   0.000  0.00  0.00    -0.358 OA
ATOM     24  C   UNL     1      -7.353   4.415   0.000  0.00  0.00    +0.196 C 
ENDBRANCH  22  23
TORSDOF 3