REMARK  Name = NSC 138320
REMARK  29 active torsions:
REMARK  status: ('A' for Active; 'I' for Inactive)
REMARK    1  A    between atoms: C_1  and  C_2
REMARK    2  A    between atoms: C_3  and  O_37
REMARK    3  A    between atoms: C_5  and  C_6
REMARK    4  A    between atoms: C_6  and  C_35
REMARK    5  A    between atoms: C_11  and  O_31
REMARK    6  A    between atoms: C_12  and  C_13
REMARK    7  A    between atoms: C_14  and  C_15
REMARK    8  A    between atoms: C_15  and  C_16
REMARK    9  A    between atoms: C_15  and  C_17
REMARK   10  A    between atoms: C_18  and  C_19
REMARK   11  A    between atoms: C_18  and  C_20
REMARK   12  A    between atoms: C_20  and  C_22
REMARK   13  A    between atoms: C_22  and  C_23
REMARK   14  A    between atoms: C_22  and  C_24
REMARK   15  A    between atoms: C_24  and  C_25
REMARK   16  A    between atoms: C_25  and  C_26
REMARK   17  A    between atoms: C_25  and  C_27
REMARK   18  A    between atoms: C_27  and  O_28
REMARK   19  A    between atoms: O_37  and  C_38
REMARK   20  A    between atoms: C_41  and  O_42
REMARK   21  A    between atoms: O_42  and  C_43
REMARK   22  A    between atoms: C_44  and  C_45
REMARK   23  A    between atoms: C_48  and  C_64
REMARK   24  A    between atoms: C_50  and  C_51
REMARK   25  A    between atoms: C_52  and  C_62
REMARK   26  A    between atoms: C_54  and  C_55
REMARK   27  A    between atoms: C_56  and  O_57
REMARK   28  A    between atoms: C_56  and  C_59
REMARK   29  A    between atoms: C_59  and  O_60
REMARK                            x       y       z     vdW  Elec       q    Type
REMARK                         _______ _______ _______ _____ _____    ______ ____
ROOT
ATOM      1  C   UNL     1      10.500 -23.863   0.000  0.00  0.00    +0.015 C 
ATOM      2  C   UNL     1       9.750 -22.564   0.000  0.00  0.00    +0.075 C 
ATOM      3  C   UNL     1       8.250 -22.564   0.000  0.00  0.00    +0.132 C 
ATOM      4  C   UNL     1       7.500 -21.265   0.000  0.00  0.00    +0.066 C 
ATOM      5  C   UNL     1       8.250 -19.966   0.000  0.00  0.00    +0.156 C 
ATOM     36  O   UNL     1       9.750 -19.966   0.000  0.00  0.00    -0.342 OA
ATOM     47  C   UNL     1      10.500 -21.265   0.000  0.00  0.00    +0.178 C 
ATOM     48  C   UNL     1      11.382 -20.051   0.000  0.00  0.00    +0.048 C 
ATOM     49  C   UNL     1      12.808 -20.515   0.000  0.00  0.00    +0.042 C 
ATOM     50  C   UNL     1      12.808 -22.015   0.000  0.00  0.00    +0.151 C 
ATOM     64  C   UNL     1      10.918 -18.625   0.000  0.00  0.00    +0.013 C 
ATOM     65  O   UNL     1      11.382 -22.478   0.000  0.00  0.00    -0.342 OA
ENDROOT
BRANCH   5   6
ATOM      6  C   UNL     1       7.500 -18.667   0.000  0.00  0.00    +0.096 C 
ATOM      7  C   UNL     1       8.870 -18.057   0.000  0.00  0.00    +0.042 C 
ATOM      8  C   UNL     1       8.714 -16.565   0.000  0.00  0.00    +0.068 C 
ATOM      9  C   UNL     1       7.246 -16.253   0.000  0.00  0.00    +0.174 C 
ATOM     10  C   UNL     1       5.755 -16.096   0.000  0.00  0.00    +0.096 C 
ATOM     11  C   UNL     1       5.144 -14.726   0.000  0.00  0.00    +0.125 C 
ATOM     12  C   UNL     1       6.026 -13.512   0.000  0.00  0.00    +0.044 C 
ATOM     13  C   UNL     1       5.416 -12.142   0.000  0.00  0.00    +0.013 C 
ATOM     14  C   UNL     1       7.518 -13.669   0.000  0.00  0.00    +0.133 C 
ATOM     33  O   UNL     1       8.128 -15.040   0.000  0.00  0.00    -0.344 OA
ATOM     34  O   UNL     1       6.496 -17.552   0.000  0.00  0.00    -0.340 OA
ATOM     35  C   UNL     1       6.287 -19.549   0.000  0.00  0.00    +0.044 C 
BRANCH  14  15
ATOM     15  C   UNL     1       8.400 -12.456   0.000  0.00  0.00    +0.038 C 
ATOM     16  C   UNL     1       9.891 -12.612   0.000  0.00  0.00    +0.014 C 
BRANCH  15  17
ATOM     17  C   UNL     1       7.790 -11.085   0.000  0.00  0.00    -0.015 C 
ATOM     18  C   UNL     1       8.671  -9.872   0.000  0.00  0.00    -0.011 C 
ATOM     19  C   UNL     1      10.163 -10.029   0.000  0.00  0.00    +0.047 C 
BRANCH  18  20
ATOM     20  C   UNL     1       8.061  -8.502   0.000  0.00  0.00    +0.161 C 
ATOM     21  O   UNL     1       6.569  -8.345   0.000  0.00  0.00    -0.292 OA
BRANCH  20  22
ATOM     22  C   UNL     1       8.943  -7.288   0.000  0.00  0.00    +0.058 C 
ATOM     23  C   UNL     1      10.435  -7.445   0.000  0.00  0.00    +0.016 C 
BRANCH  22  24
ATOM     24  C   UNL     1       8.333  -5.918   0.000  0.00  0.00    +0.025 C 
BRANCH  24  25
ATOM     25  C   UNL     1       9.214  -4.704   0.000  0.00  0.00    +0.095 C 
ATOM     26  C   UNL     1      10.706  -4.861   0.000  0.00  0.00    +0.019 C 
BRANCH  25  27
ATOM     27  C   UNL     1       8.604  -3.334   0.000  0.00  0.00    +0.308 C 
ATOM     30  O   UNL     1       7.112  -3.177   0.000  0.00  0.00    -0.251 OA
BRANCH  27  28
ATOM     28  O   UNL     1       9.486  -2.120   0.000  0.00  0.00    -0.480 OA
ATOM     29  H   UNL     1       8.876  -0.750   0.000  0.00  0.00    +0.295 HD
ENDBRANCH  27  28
ENDBRANCH  25  27
ENDBRANCH  24  25
ENDBRANCH  22  24
ENDBRANCH  20  22
ENDBRANCH  18  20
ENDBRANCH  15  17
ENDBRANCH  14  15
BRANCH  11  31
ATOM     31  O   UNL     1       3.653 -14.569   0.000  0.00  0.00    -0.391 OA
ATOM     32  H   UNL     1       3.043 -13.199   0.000  0.00  0.00    +0.210 HD
ENDBRANCH  11  31
ENDBRANCH   5   6
BRANCH  50  51
ATOM     51  C   UNL     1      14.022 -22.897   0.000  0.00  0.00    +0.153 C 
ATOM     52  C   UNL     1      13.865 -24.388   0.000  0.00  0.00    +0.018 C 
ATOM     53  C   UNL     1      15.079 -25.270   0.000  0.00  0.00    +0.014 C 
ATOM     54  C   UNL     1      16.449 -24.660   0.000  0.00  0.00    +0.048 C 
ATOM     55  C   UNL     1      17.663 -25.541   0.000  0.00  0.00    +0.013 C 
ATOM     56  C   UNL     1      16.606 -23.168   0.000  0.00  0.00    +0.194 C 
ATOM     62  C   UNL     1      12.495 -24.998   0.000  0.00  0.00    +0.010 C 
ATOM     63  O   UNL     1      15.392 -22.286   0.000  0.00  0.00    -0.340 OA
BRANCH  56  57
ATOM     57  O   UNL     1      17.263 -21.820   0.000  0.00  0.00    -0.363 OA
ATOM     58  H   UNL     1      16.424 -20.576   0.000  0.00  0.00    +0.213 HD
ENDBRANCH  56  57
BRANCH  56  59
ATOM     59  C   UNL     1      18.048 -23.581   0.000  0.00  0.00    +0.220 C 
BRANCH  59  60
ATOM     60  O   UNL     1      19.127 -22.540   0.000  0.00  0.00    -0.390 OA
ATOM     61  H   UNL     1      20.569 -22.953   0.000  0.00  0.00    +0.210 HD
ENDBRANCH  59  60
ENDBRANCH  56  59
ENDBRANCH  50  51
BRANCH   3  37
ATOM     37  O   UNL     1       7.500 -23.863   0.000  0.00  0.00    -0.348 OA
BRANCH  37  38
ATOM     38  C   UNL     1       6.000 -23.863   0.000  0.00  0.00    +0.251 C 
ATOM     39  C   UNL     1       5.250 -22.564   0.000  0.00  0.00    +0.064 C 
ATOM     40  C   UNL     1       3.750 -22.564   0.000  0.00  0.00    +0.039 C 
ATOM     41  C   UNL     1       3.000 -23.863   0.000  0.00  0.00    +0.147 C 
ATOM     44  C   UNL     1       3.750 -25.162   0.000  0.00  0.00    +0.147 C 
ATOM     45  C   UNL     1       3.000 -26.461   0.000  0.00  0.00    +0.040 C 
ATOM     46  O   UNL     1       5.250 -25.162   0.000  0.00  0.00    -0.346 OA
BRANCH  41  42
ATOM     42  O   UNL     1       1.500 -23.863   0.000  0.00  0.00    -0.377 OA
ATOM     43  C   UNL     1       0.750 -22.564   0.000  0.00  0.00    +0.194 C 
ENDBRANCH  41  42
ENDBRANCH  37  38
ENDBRANCH   3  37
TORSDOF 17