REMARK  Name = NSC 13123
REMARK  1 active torsions:
REMARK  status: ('A' for Active; 'I' for Inactive)
REMARK    1  A    between atoms: N_4  and  C_5
REMARK                            x       y       z     vdW  Elec       q    Type
REMARK                         _______ _______ _______ _____ _____    ______ ____
ROOT
ATOM      1  O   UNL     1      -1.466  -6.069   0.000  0.00  0.00    -0.251 OA
ATOM      2  C   UNL     1      -0.584  -4.856   0.000  0.00  0.00    +0.341 C 
ATOM      3  C   UNL     1      -1.048  -3.429   0.000  0.00  0.00    +0.304 C 
ATOM      4  N   UNL     1       0.166  -2.548   0.000  0.00  0.00    -0.219 N 
ATOM      5  C   UNL     1       0.166  -1.048   0.000  0.00  0.00    +0.229 C 
ATOM      6  C   UNL     1       1.379  -3.429   0.000  0.00  0.00    +0.363 C 
ATOM      7  N   UNL     1       2.806  -2.966   0.000  0.00  0.00    -0.253 N 
ATOM      8  H   UNL     1       3.011  -2.003   0.000  0.00  0.00    +0.241 HD
ATOM      9  H   UNL     1       3.538  -3.625   0.000  0.00  0.00    +0.241 HD
ATOM     10  N   UNL     1       0.916  -4.856   0.000  0.00  0.00    -0.005 NA
ENDROOT
TORSDOF 0