REMARK  Name = NSC 170365
REMARK  27 active torsions:
REMARK  status: ('A' for Active; 'I' for Inactive)
REMARK    1  A    between atoms: C_1  and  C_2
REMARK    2  A    between atoms: C_2  and  C_3
REMARK    3  A    between atoms: C_3  and  C_4
REMARK    4  A    between atoms: C_3  and  C_132
REMARK    5  A    between atoms: C_8  and  O_9
REMARK    6  A    between atoms: C_16  and  C_119
REMARK    7  A    between atoms: C_26  and  C_109
REMARK    8  A    between atoms: C_40  and  C_102
REMARK    9  A    between atoms: C_54  and  C_69
REMARK   10  A    between atoms: C_64  and  C_67
REMARK   11  A    between atoms: C_72  and  C_73
REMARK   12  A    between atoms: C_76  and  C_77
REMARK   13  A    between atoms: N_79  and  C_81
REMARK   14  A    between atoms: C_81  and  C_82
REMARK   15  A    between atoms: N_84  and  C_86
REMARK   16  A    between atoms: C_86  and  C_87
REMARK   17  A    between atoms: C_102  and  O_103
REMARK   18  A    between atoms: C_102  and  C_105
REMARK   19  A    between atoms: C_106  and  C_107
REMARK   20  A    between atoms: C_109  and  O_110
REMARK   21  A    between atoms: C_109  and  C_112
REMARK   22  A    between atoms: C_109  and  C_116
REMARK   23  A    between atoms: C_112  and  O_113
REMARK   24  A    between atoms: C_112  and  C_115
REMARK   25  A    between atoms: C_122  and  C_123
REMARK   26  A    between atoms: C_123  and  O_124
REMARK   27  A    between atoms: C_123  and  C_126
REMARK                            x       y       z     vdW  Elec       q    Type
REMARK                         _______ _______ _______ _____ _____    ______ ____
ROOT
ATOM      4  C   UNL     1      -1.145   7.391   0.000  0.00  0.00    +0.144 C 
ATOM      5  N   UNL     1      -0.154   7.262   0.000  0.00  0.00    -0.297 NA
ATOM      6  H   UNL     1       0.089   8.232   0.000  0.00  0.00    +0.123 HD
ATOM      7  C   UNL     1       0.782   6.909   0.000  0.00  0.00    +0.112 C 
ATOM      8  C   UNL     1       1.612   6.351   0.000  0.00  0.00    +0.184 C 
ATOM     11  C   UNL     1       2.292   5.617   0.000  0.00  0.00    +0.080 A 
ATOM     12  N   UNL     1       2.151   4.479   0.000  0.00  0.00    -0.242 NA
ATOM     13  C   UNL     1       3.067   3.788   0.000  0.00  0.00    +0.148 A 
ATOM     14  C   UNL     1       3.121   2.789   0.000  0.00  0.00    +0.358 C 
ATOM     15  O   UNL     1       2.945   1.805   0.000  0.00  0.00    -0.455 OA
ATOM     16  C   UNL     1       2.548   0.887   0.000  0.00  0.00    +0.200 C 
ATOM     17  C   UNL     1       1.780   0.047   0.000  0.00  0.00    +0.169 C 
ATOM     18  N   UNL     1       2.654  -0.440   0.000  0.00  0.00    -0.298 N 
ATOM     19  H   UNL     1       3.242   0.369   0.000  0.00  0.00    +0.150 HD
ATOM     20  C   UNL     1       3.386  -1.121   0.000  0.00  0.00    +0.264 C 
ATOM     21  O   UNL     1       4.150  -0.476   0.000  0.00  0.00    -0.268 OA
ATOM     22  C   UNL     1       3.933  -1.958   0.000  0.00  0.00    +0.133 A 
ATOM     23  N   UNL     1       4.499  -2.849   0.000  0.00  0.00    -0.237 NA
ATOM     24  C   UNL     1       4.361  -3.897   0.000  0.00  0.00    +0.102 A 
ATOM     25  S   UNL     1       3.961  -4.813   0.000  0.00  0.00    -0.078 S 
ATOM     26  C   UNL     1       4.216  -4.886   0.000  0.00  0.00    +0.162 C 
ATOM     27  N   UNL     1       3.838  -5.812   0.000  0.00  0.00    -0.302 N 
ATOM     28  H   UNL     1       4.712  -6.298   0.000  0.00  0.00    +0.150 HD
ATOM     29  C   UNL     1       3.250  -6.621   0.000  0.00  0.00    +0.239 C 
ATOM     30  O   UNL     1       3.982  -7.302   0.000  0.00  0.00    -0.273 OA
ATOM     31  C   UNL     1       2.486  -7.265   0.000  0.00  0.00    +0.202 C 
ATOM     32  N   UNL     1       1.310  -6.914   0.000  0.00  0.00    -0.262 NA
ATOM     33  C   UNL     1       0.613  -7.923   0.000  0.00  0.00    +0.113 C 
ATOM     34  S   UNL     1      -0.346  -7.637   0.000  0.00  0.00    -0.102 S 
ATOM     35  C   UNL     1      -0.387  -7.899   0.000  0.00  0.00    +0.061 C 
ATOM     36  N   UNL     1      -1.352  -7.636   0.000  0.00  0.00    -0.282 N 
ATOM     37  H   UNL     1      -1.730  -8.562   0.000  0.00  0.00    +0.155 HD
ATOM     38  C   UNL     1      -2.226  -7.149   0.000  0.00  0.00    +0.240 C 
ATOM     39  O   UNL     1      -1.638  -6.340   0.000  0.00  0.00    -0.273 OA
ATOM     40  C   UNL     1      -2.958  -6.468   0.000  0.00  0.00    +0.188 C 
ATOM     41  N   UNL     1      -3.505  -5.631   0.000  0.00  0.00    -0.297 N 
ATOM     42  H   UNL     1      -4.402  -6.074   0.000  0.00  0.00    +0.150 HD
ATOM     43  C   UNL     1      -3.837  -4.688   0.000  0.00  0.00    +0.264 C 
ATOM     44  O   UNL     1      -4.813  -4.903   0.000  0.00  0.00    -0.268 OA
ATOM     45  C   UNL     1      -3.933  -3.692   0.000  0.00  0.00    +0.133 A 
ATOM     46  N   UNL     1      -2.976  -2.924   0.000  0.00  0.00    -0.237 NA
ATOM     47  C   UNL     1      -3.410  -1.777   0.000  0.00  0.00    +0.105 A 
ATOM     48  S   UNL     1      -4.506  -2.179   0.000  0.00  0.00    -0.078 S 
ATOM     49  C   UNL     1      -2.822  -0.968   0.000  0.00  0.00    +0.111 C 
ATOM     50  N   UNL     1      -3.701  -0.491   0.000  0.00  0.00    -0.300 N 
ATOM     51  H   UNL     1      -3.126   0.327   0.000  0.00  0.00    +0.150 HD
ATOM     52  C   UNL     1      -4.447   0.175   0.000  0.00  0.00    +0.234 C 
ATOM     53  O   UNL     1      -5.195  -0.489   0.000  0.00  0.00    -0.274 OA
ATOM     54  C   UNL     1      -5.021   0.994   0.000  0.00  0.00    +0.156 C 
ATOM     55  N   UNL     1      -5.392   1.923   0.000  0.00  0.00    -0.299 N 
ATOM     56  H   UNL     1      -4.426   2.184   0.000  0.00  0.00    +0.150 HD
ATOM     57  C   UNL     1      -5.540   2.912   0.000  0.00  0.00    +0.258 C 
ATOM     58  O   UNL     1      -6.539   2.879   0.000  0.00  0.00    -0.269 OA
ATOM     59  C   UNL     1      -5.458   3.908   0.000  0.00  0.00    +0.089 C 
ATOM     60  N   UNL     1      -5.149   4.860   0.000  0.00  0.00    -0.280 N 
ATOM     61  H   UNL     1      -4.240   4.444   0.000  0.00  0.00    +0.155 HD
ATOM     62  C   UNL     1      -4.631   5.715   0.000  0.00  0.00    +0.237 C 
ATOM     63  O   UNL     1      -5.421   6.328   0.000  0.00  0.00    -0.273 OA
ATOM     64  C   UNL     1      -3.931   6.429   0.000  0.00  0.00    +0.156 C 
ATOM     65  N   UNL     1      -3.085   6.963   0.000  0.00  0.00    -0.303 N 
ATOM     66  H   UNL     1      -2.652   6.062   0.000  0.00  0.00    +0.149 HD
ATOM     67  C   UNL     1      -4.559   7.207   0.000  0.00  0.00    +0.038 C 
ATOM     68  C   UNL     1      -6.438   4.105   0.000  0.00  0.00    +0.039 C 
ATOM     69  C   UNL     1      -5.901   0.519   0.000  0.00  0.00    +0.038 C 
ATOM     70  C   UNL     1      -2.058  -0.324   0.000  0.00  0.00    +0.184 C 
ATOM     71  N   UNL     1      -1.117  -0.663   0.000  0.00  0.00    -0.273 NA
ATOM     72  C   UNL     1      -0.941  -1.648   0.000  0.00  0.00    +0.069 C 
ATOM     95  C   UNL     1      -1.706  -2.292   0.000  0.00  0.00    +0.060 C 
ATOM     96  C   UNL     1      -1.161   0.119   0.000  0.00  0.00    +0.076 A 
ATOM     97  N   UNL     1      -0.207   0.574   0.000  0.00  0.00    -0.245 NA
ATOM     98  C   UNL     1       1.461  -1.174   0.000  0.00  0.00    +0.072 A 
ATOM     99  S   UNL     1       0.599  -0.666   0.000  0.00  0.00    -0.078 S 
ATOM    100  C   UNL     1      -2.646  -1.952   0.000  0.00  0.00    +0.041 C 
ATOM    101  C   UNL     1      -4.769  -3.144   0.000  0.00  0.00    +0.080 A 
ATOM    106  C   UNL     1      -0.532  -8.888   0.000  0.00  0.00    -0.004 C 
ATOM    107  C   UNL     1      -1.462  -9.257   0.000  0.00  0.00    +0.037 C 
ATOM    108  C   UNL     1       0.598  -7.305   0.000  0.00  0.00    +0.112 C 
ATOM    117  C   UNL     1       3.746  -3.837   0.000  0.00  0.00    +0.080 A 
ATOM    118  C   UNL     1       0.815   0.310   0.000  0.00  0.00    +0.102 A 
ATOM    119  C   UNL     1       3.388   0.344   0.000  0.00  0.00    +0.054 C 
ATOM    120  O   UNL     1       2.123   2.851   0.000  0.00  0.00    -0.243 OA
ATOM    121  C   UNL     1       2.540   2.755   0.000  0.00  0.00    +0.041 A 
ATOM    122  C   UNL     1       2.315   3.729   0.000  0.00  0.00    -0.008 A 
ATOM    127  C   UNL     1       1.054   4.681   0.000  0.00  0.00    +0.004 A 
ATOM    128  C   UNL     1       0.133   5.070   0.000  0.00  0.00    +0.007 C 
ATOM    129  C   UNL     1       0.930   5.673   0.000  0.00  0.00    -0.005 C 
ATOM    130  C   UNL     1      -2.140   7.290   0.000  0.00  0.00    +0.231 C 
ATOM    131  O   UNL     1      -1.925   6.313   0.000  0.00  0.00    -0.274 OA
ENDROOT
BRANCH  72  73
ATOM     73  C   UNL     1      -0.001  -1.988   0.000  0.00  0.00    +0.123 A 
ATOM     74  S   UNL     1       0.827  -1.427   0.000  0.00  0.00    -0.074 S 
ATOM     75  C   UNL     1       1.616  -2.041   0.000  0.00  0.00    +0.080 A 
ATOM     76  C   UNL     1       1.276  -2.981   0.000  0.00  0.00    +0.134 A 
ATOM     94  N   UNL     1       0.277  -2.949   0.000  0.00  0.00    -0.233 NA
BRANCH  76  77
ATOM     77  C   UNL     1       1.837  -3.809   0.000  0.00  0.00    +0.267 C 
ATOM     78  O   UNL     1       2.835  -3.737   0.000  0.00  0.00    -0.268 OA
ATOM     79  N   UNL     1       1.401  -4.709   0.000  0.00  0.00    -0.277 N 
ATOM     80  H   UNL     1       1.962  -5.537   0.000  0.00  0.00    +0.155 HD
BRANCH  79  81
ATOM     81  C   UNL     1       0.404  -4.781   0.000  0.00  0.00    +0.089 C 
ATOM     93  C   UNL     1      -0.158  -3.953   0.000  0.00  0.00    +0.039 C 
BRANCH  81  82
ATOM     82  C   UNL     1      -0.033  -5.680   0.000  0.00  0.00    +0.262 C 
ATOM     83  O   UNL     1       0.528  -6.508   0.000  0.00  0.00    -0.268 OA
ATOM     84  N   UNL     1      -1.030  -5.752   0.000  0.00  0.00    -0.277 N 
ATOM     85  H   UNL     1      -1.467  -6.652   0.000  0.00  0.00    +0.155 HD
BRANCH  84  86
ATOM     86  C   UNL     1      -1.439  -4.840   0.000  0.00  0.00    +0.089 C 
ATOM     92  C   UNL     1      -2.434  -4.737   0.000  0.00  0.00    +0.039 C 
BRANCH  86  87
ATOM     87  C   UNL     1      -0.853  -4.029   0.000  0.00  0.00    +0.255 C 
ATOM     88  O   UNL     1       0.142  -4.132   0.000  0.00  0.00    -0.269 OA
ATOM     89  N   UNL     1      -1.262  -3.117   0.000  0.00  0.00    -0.324 N 
ATOM     90  H   UNL     1      -0.676  -2.307   0.000  0.00  0.00    +0.145 HD
ATOM     91  H   UNL     1      -2.257  -3.015   0.000  0.00  0.00    +0.145 HD
ENDBRANCH  86  87
ENDBRANCH  84  86
ENDBRANCH  81  82
ENDBRANCH  79  81
ENDBRANCH  76  77
ENDBRANCH  72  73
BRANCH   4   3
ATOM      3  C   UNL     1      -1.131   8.391   0.000  0.00  0.00    +0.012 C 
ATOM    132  C   UNL     1      -1.990   8.903   0.000  0.00  0.00    +0.009 C 
BRANCH   3   2
ATOM      1  C   UNL     1      -0.244   9.879   0.000  0.00  0.00    +0.004 C 
ATOM      2  C   UNL     1      -0.258   8.879   0.000  0.00  0.00    +0.002 C 
ENDBRANCH   3   2
ENDBRANCH   4   3
BRANCH   8   9
ATOM      9  O   UNL     1       2.262   7.111   0.000  0.00  0.00    -0.384 OA
ATOM     10  H   UNL     1       3.245   6.928   0.000  0.00  0.00    +0.210 HD
ENDBRANCH   8   9
BRANCH  40 102
ATOM    102  C   UNL     1      -2.193  -5.823   0.000  0.00  0.00    +0.141 C 
ATOM    105  C   UNL     1      -1.253  -6.163   0.000  0.00  0.00    +0.040 C 
BRANCH 102 103
ATOM    103  O   UNL     1      -2.369  -4.839   0.000  0.00  0.00    -0.390 OA
ATOM    104  H   UNL     1      -3.309  -4.499   0.000  0.00  0.00    +0.210 HD
ENDBRANCH 102 103
ENDBRANCH  40 102
BRANCH  26 109
ATOM    109  C   UNL     1       5.181  -5.149   0.000  0.00  0.00    +0.113 C 
ATOM    116  C   UNL     1       4.926  -4.182   0.000  0.00  0.00    +0.046 C 
BRANCH 109 110
ATOM    110  O   UNL     1       5.599  -6.057   0.000  0.00  0.00    -0.384 OA
ATOM    111  H   UNL     1       6.595  -6.149   0.000  0.00  0.00    +0.210 HD
ENDBRANCH 109 110
BRANCH 109 112
ATOM    112  C   UNL     1       5.891  -4.445   0.000  0.00  0.00    +0.145 C 
ATOM    115  C   UNL     1       5.636  -3.478   0.000  0.00  0.00    +0.040 C 
BRANCH 112 113
ATOM    113  O   UNL     1       6.856  -4.708   0.000  0.00  0.00    -0.389 OA
ATOM    114  H   UNL     1       7.110  -5.675   0.000  0.00  0.00    +0.210 HD
ENDBRANCH 112 113
ENDBRANCH 109 112
ENDBRANCH  26 109
BRANCH 122 123
ATOM    123  C   UNL     1       3.047   4.411   0.000  0.00  0.00    +0.142 C 
ATOM    126  C   UNL     1       2.823   5.385   0.000  0.00  0.00    +0.043 C 
BRANCH 123 124
ATOM    124  O   UNL     1       4.003   4.118   0.000  0.00  0.00    -0.387 OA
ATOM    125  H   UNL     1       4.228   3.144   0.000  0.00  0.00    +0.210 HD
ENDBRANCH 123 124
ENDBRANCH 122 123
TORSDOF 17