REMARK  Name = NSC 15780
REMARK  15 active torsions:
REMARK  status: ('A' for Active; 'I' for Inactive)
REMARK    1  A    between atoms: C_2  and  O_9
REMARK    2  A    between atoms: C_3  and  O_4
REMARK    3  A    between atoms: C_5  and  O_6
REMARK    4  A    between atoms: C_7  and  O_8
REMARK    5  A    between atoms: O_9  and  C_10
REMARK    6  A    between atoms: C_10  and  C_11
REMARK    7  A    between atoms: C_12  and  O_13
REMARK    8  A    between atoms: C_14  and  O_15
REMARK    9  A    between atoms: C_16  and  O_17
REMARK   10  A    between atoms: C_18  and  O_19
REMARK   11  A    between atoms: O_19  and  C_20
REMARK   12  A    between atoms: C_20  and  C_21
REMARK   13  A    between atoms: C_20  and  C_23
REMARK   14  A    between atoms: C_31  and  C_32
REMARK   15  A    between atoms: C_32  and  O_33
REMARK                            x       y       z     vdW  Elec       q    Type
REMARK                         _______ _______ _______ _____ _____    ______ ____
ROOT
ATOM     14  C   UNL     1      -8.250  -2.049   0.000  0.00  0.00    +0.178 C 
ATOM     15  C   UNL     1      -9.000  -3.348   0.000  0.00  0.00    +0.177 C 
ATOM     18  C   UNL     1      -8.250  -4.647   0.000  0.00  0.00    +0.179 C 
ATOM     21  C   UNL     1      -6.750  -4.647   0.000  0.00  0.00    +0.201 C 
ATOM     24  C   UNL     1      -6.000  -3.348   0.000  0.00  0.00    +0.284 C 
ATOM     35  O   UNL     1      -6.750  -2.049   0.000  0.00  0.00    -0.340 OA
ENDROOT
BRANCH  15  16
ATOM     16  O   UNL     1     -10.500  -3.348   0.000  0.00  0.00    -0.386 OA
ATOM     17  H   UNL     1     -10.985  -2.508   0.000  0.00  0.00    +0.210 HD
ENDBRANCH  15  16
BRANCH  18  19
ATOM     19  O   UNL     1      -7.500  -3.348   0.000  0.00  0.00    -0.386 OA
ATOM     20  H   UNL     1      -6.530  -3.348   0.000  0.00  0.00    +0.210 HD
ENDBRANCH  18  19
BRANCH  21  22
ATOM     22  O   UNL     1      -6.000  -5.946   0.000  0.00  0.00    -0.384 OA
ATOM     23  H   UNL     1      -6.485  -6.786   0.000  0.00  0.00    +0.210 HD
ENDBRANCH  21  22
BRANCH  14  13
ATOM     13  C   UNL     1      -9.000  -0.750   0.000  0.00  0.00    +0.197 C 
BRANCH  13  12
ATOM     12  O   UNL     1     -10.477  -1.011   0.000  0.00  0.00    -0.346 OA
BRANCH  12   2
ATOM      1  O   UNL     1     -10.477   1.588   0.000  0.00  0.00    -0.341 OA
ATOM      2  C   UNL     1     -11.227   0.289   0.000  0.00  0.00    +0.282 C 
ATOM      3  C   UNL     1     -12.727   0.288   0.000  0.00  0.00    +0.201 C 
ATOM      6  C   UNL     1     -13.477   1.588   0.000  0.00  0.00    +0.179 C 
ATOM      9  C   UNL     1     -12.727   2.887   0.000  0.00  0.00    +0.177 C 
ATOM     36  C   UNL     1     -11.227   2.887   0.000  0.00  0.00    +0.178 C 
BRANCH   3   4
ATOM      4  O   UNL     1     -13.477  -1.011   0.000  0.00  0.00    -0.384 OA
ATOM      5  H   UNL     1     -14.447  -1.010   0.000  0.00  0.00    +0.210 HD
ENDBRANCH   3   4
BRANCH   6   7
ATOM      7  O   UNL     1     -11.977   1.588   0.000  0.00  0.00    -0.386 OA
ATOM      8  H   UNL     1     -11.492   0.748   0.000  0.00  0.00    +0.210 HD
ENDBRANCH   6   7
BRANCH   9  10
ATOM     10  O   UNL     1     -13.477   4.186   0.000  0.00  0.00    -0.386 OA
ATOM     11  H   UNL     1     -12.992   5.026   0.000  0.00  0.00    +0.210 HD
ENDBRANCH   9  10
BRANCH  36  37
ATOM     37  C   UNL     1     -10.477   4.186   0.000  0.00  0.00    +0.190 C 
BRANCH  37  38
ATOM     38  O   UNL     1     -11.227   5.485   0.000  0.00  0.00    -0.392 OA
ATOM     39  H   UNL     1     -10.742   6.325   0.000  0.00  0.00    +0.210 HD
ENDBRANCH  37  38
ENDBRANCH  36  37
ENDBRANCH  12   2
ENDBRANCH  13  12
ENDBRANCH  14  13
BRANCH  24  25
ATOM     25  O   UNL     1      -4.500  -3.348   0.000  0.00  0.00    -0.326 OA
BRANCH  25  26
ATOM     26  C   UNL     1      -3.987  -4.758   0.000  0.00  0.00    +0.253 C 
BRANCH  26  29
ATOM     29  C   UNL     1      -2.510  -5.018   0.000  0.00  0.00    -0.005 A 
ATOM     30  C   UNL     1      -1.546  -3.869   0.000  0.00  0.00    +0.007 A 
ATOM     31  C   UNL     1      -0.068  -4.130   0.000  0.00  0.00    +0.000 A 
ATOM     32  C   UNL     1       0.445  -5.539   0.000  0.00  0.00    +0.000 A 
ATOM     33  C   UNL     1      -0.519  -6.688   0.000  0.00  0.00    +0.000 A 
ATOM     34  C   UNL     1      -1.997  -6.428   0.000  0.00  0.00    +0.007 A 
ENDBRANCH  26  29
BRANCH  26  27
ATOM     27  C   UNL     1      -4.951  -5.907   0.000  0.00  0.00    +0.099 C 
ATOM     28  N   UNL     1      -5.915  -7.056   0.000  0.00  0.00    -0.193 NA
ENDBRANCH  26  27
ENDBRANCH  25  26
ENDBRANCH  24  25
TORSDOF 15