REMARK  Name = NSC 147340#1
REMARK  8 active torsions:
REMARK  status: ('A' for Active; 'I' for Inactive)
REMARK    1  A    between atoms: C_3  and  C_4
REMARK    2  A    between atoms: C_4  and  C_5
REMARK    3  A    between atoms: C_8  and  O_9
REMARK    4  A    between atoms: O_9  and  C_10
REMARK    5  A    between atoms: C_13  and  O_14
REMARK    6  A    between atoms: O_14  and  C_15
REMARK    7  A    between atoms: C_15  and  C_16
REMARK    8  A    between atoms: C_18  and  O_19
REMARK                            x       y       z     vdW  Elec       q    Type
REMARK                         _______ _______ _______ _____ _____    ______ ____
ROOT
ATOM      1  N   UNL     1       3.396  -4.338   0.000  0.00  0.00    -0.307 NA
ATOM      2  H   UNL     1       4.822  -4.802   0.000  0.00  0.00    +0.122 HD
ATOM      3  C   UNL     1       2.182  -5.220   0.000  0.00  0.00    +0.102 C 
ATOM     13  C   UNL     1       0.969  -4.338   0.000  0.00  0.00    +0.223 C 
ATOM     18  C   UNL     1       1.432  -2.912   0.000  0.00  0.00    +0.170 C 
ATOM     21  C   UNL     1       2.932  -2.912   0.000  0.00  0.00    +0.116 C 
ENDROOT
BRANCH  18  19
ATOM     19  O   UNL     1       0.551  -1.698   0.000  0.00  0.00    -0.387 OA
ATOM     20  H   UNL     1       0.945  -0.812   0.000  0.00  0.00    +0.210 HD
ENDBRANCH  18  19
BRANCH   3   4
ATOM      4  C   UNL     1       2.182  -6.720   0.000  0.00  0.00    +0.057 C 
BRANCH   4   5
ATOM      5  C   UNL     1       0.883  -7.470   0.000  0.00  0.00    -0.046 A 
ATOM      6  C   UNL     1       0.883  -8.970   0.000  0.00  0.00    +0.007 A 
ATOM      7  C   UNL     1      -0.416  -9.720   0.000  0.00  0.00    +0.046 A 
ATOM      8  C   UNL     1      -1.715  -8.970   0.000  0.00  0.00    +0.120 A 
ATOM     11  C   UNL     1      -1.715  -7.470   0.000  0.00  0.00    +0.046 A 
ATOM     12  C   UNL     1      -0.416  -6.720   0.000  0.00  0.00    +0.007 A 
BRANCH   8   9
ATOM      9  O   UNL     1      -3.014  -9.720   0.000  0.00  0.00    -0.495 OA
ATOM     10  C   UNL     1      -4.313  -8.970   0.000  0.00  0.00    +0.277 C 
ENDBRANCH   8   9
ENDBRANCH   4   5
ENDBRANCH   3   4
BRANCH  13  14
ATOM     14  O   UNL     1      -0.458  -4.802   0.000  0.00  0.00    -0.457 OA
BRANCH  14  15
ATOM     15  C   UNL     1      -1.573  -3.798   0.000  0.00  0.00    +0.304 C 
ATOM     16  C   UNL     1      -1.261  -2.331   0.000  0.00  0.00    +0.136 C 
ATOM     17  O   UNL     1      -2.999  -4.262   0.000  0.00  0.00    -0.251 OA
ENDBRANCH  14  15
ENDBRANCH  13  14
TORSDOF 6