REMARK  Name = NSC 177383
REMARK  17 active torsions:
REMARK  status: ('A' for Active; 'I' for Inactive)
REMARK    1  A    between atoms: C_3  and  C_4
REMARK    2  A    between atoms: N_10  and  C_11
REMARK    3  A    between atoms: C_14  and  O_15
REMARK    4  A    between atoms: C_17  and  C_18
REMARK    5  A    between atoms: C_24  and  C_25
REMARK    6  A    between atoms: C_31  and  O_32
REMARK    7  A    between atoms: C_33  and  C_34
REMARK    8  A    between atoms: C_35  and  O_36
REMARK    9  A    between atoms: C_37  and  C_38
REMARK   10  A    between atoms: C_39  and  O_45
REMARK   11  A    between atoms: C_40  and  C_41
REMARK   12  A    between atoms: C_42  and  O_43
REMARK   13  A    between atoms: O_43  and  C_44
REMARK   14  A    between atoms: O_45  and  C_46
REMARK   15  A    between atoms: C_46  and  C_47
REMARK   16  A    between atoms: C_54  and  O_55
REMARK   17  A    between atoms: C_56  and  C_57
REMARK                            x       y       z     vdW  Elec       q    Type
REMARK                         _______ _______ _______ _____ _____    ______ ____
ROOT
ATOM      1  C   UNL     1      -3.829  -0.222   0.000  0.00  0.00    +0.190 C 
ATOM      2  O   UNL     1      -3.242  -1.603   0.000  0.00  0.00    -0.453 OA
ATOM      3  C   UNL     1      -2.318  -2.784   0.000  0.00  0.00    +0.314 C 
ATOM      4  C   UNL     1      -3.368  -3.855   0.000  0.00  0.00    +0.114 C 
ATOM      5  C   UNL     1      -1.119  -3.686   0.000  0.00  0.00    +0.250 C 
ATOM      6  O   UNL     1      -1.857  -4.992   0.000  0.00  0.00    -0.284 OA
ATOM      7  C   UNL     1       0.272  -4.247   0.000  0.00  0.00    +0.077 A 
ATOM      8  C   UNL     1       1.761  -4.429   0.000  0.00  0.00    +0.029 A 
ATOM      9  C   UNL     1       3.246  -4.220   0.000  0.00  0.00    +0.069 C 
ATOM     10  N   UNL     1       3.648  -5.665   0.000  0.00  0.00    -0.277 NA
ATOM     20  C   UNL     1       4.627  -3.633   0.000  0.00  0.00    +0.055 C 
ATOM     21  C   UNL     1       5.808  -2.708   0.000  0.00  0.00    +0.084 C 
ATOM     22  N   UNL     1       6.710  -1.510   0.000  0.00  0.00    -0.279 N 
ATOM     23  C   UNL     1       7.271  -0.119   0.000  0.00  0.00    +0.244 C 
ATOM     24  O   UNL     1       8.723  -0.494   0.000  0.00  0.00    -0.270 OA
ATOM     25  C   UNL     1       7.453   1.370   0.000  0.00  0.00    +0.015 C 
ATOM     26  C   UNL     1       8.953   1.384   0.000  0.00  0.00    +0.049 C 
ATOM     27  C   UNL     1       7.243   2.855   0.000  0.00  0.00    +0.055 C 
ATOM     28  C   UNL     1       6.656   4.236   0.000  0.00  0.00    +0.160 C 
ATOM     29  C   UNL     1       5.732   5.417   0.000  0.00  0.00    +0.066 C 
ATOM     30  C   UNL     1       5.914   6.906   0.000  0.00  0.00    +0.018 C 
ATOM     31  C   UNL     1       4.534   6.319   0.000  0.00  0.00    +0.029 C 
ATOM     32  C   UNL     1       3.143   6.880   0.000  0.00  0.00    +0.124 C 
ATOM     35  C   UNL     1       1.654   7.062   0.000  0.00  0.00    +0.044 C 
ATOM     36  C   UNL     1       1.640   8.562   0.000  0.00  0.00    +0.013 C 
ATOM     37  C   UNL     1       0.168   6.853   0.000  0.00  0.00    +0.126 C 
ATOM     40  C   UNL     1      -1.212   6.266   0.000  0.00  0.00    +0.056 C 
ATOM     41  C   UNL     1      -1.974   7.558   0.000  0.00  0.00    +0.014 C 
ATOM     42  C   UNL     1      -2.394   5.341   0.000  0.00  0.00    +0.187 C 
ATOM     43  C   UNL     1      -3.296   4.143   0.000  0.00  0.00    +0.060 C 
ATOM     44  C   UNL     1      -4.601   4.881   0.000  0.00  0.00    +0.014 C 
ATOM     45  C   UNL     1      -3.857   2.752   0.000  0.00  0.00    +0.150 C 
ATOM     52  O   UNL     1       7.948   4.998   0.000  0.00  0.00    -0.292 OA
ATOM     53  H   UNL     1       8.016  -2.248   0.000  0.00  0.00    +0.155 HD
ATOM     54  C   UNL     1       3.779  -2.228   0.000  0.00  0.00    +0.211 C 
ATOM     55  O   UNL     1       3.408  -0.775   0.000  0.00  0.00    -0.285 OA
ATOM     56  C   UNL     1       2.663  -3.231   0.000  0.00  0.00    +0.075 A 
ATOM     57  C   UNL     1       2.076  -1.850   0.000  0.00  0.00    +0.135 A 
ATOM     60  C   UNL     1       0.587  -1.668   0.000  0.00  0.00    +0.034 A 
ATOM     61  C   UNL     1       0.000  -0.288   0.000  0.00  0.00    +0.051 C 
ATOM     62  C   UNL     1      -0.315  -2.867   0.000  0.00  0.00    +0.143 A 
ATOM     63  O   UNL     1      -1.055  -1.975   0.000  0.00  0.00    -0.444 OA
ATOM     64  C   UNL     1      -3.647   1.267   0.000  0.00  0.00    +0.042 C 
ENDROOT
BRANCH  10  11
ATOM     11  C   UNL     1       5.100  -6.040   0.000  0.00  0.00    +0.135 C 
ATOM     12  C   UNL     1       5.502  -7.485   0.000  0.00  0.00    +0.034 C 
ATOM     13  C   UNL     1       6.954  -7.859   0.000  0.00  0.00    +0.063 C 
ATOM     14  C   UNL     1       8.005  -6.789   0.000  0.00  0.00    +0.247 C 
ATOM     17  O   UNL     1       7.603  -5.344   0.000  0.00  0.00    -0.346 OA
ATOM     18  C   UNL     1       6.151  -4.969   0.000  0.00  0.00    +0.143 C 
ATOM     19  C   UNL     1       6.553  -6.414   0.000  0.00  0.00    +0.040 C 
BRANCH  14  15
ATOM     15  O   UNL     1       9.458  -7.164   0.000  0.00  0.00    -0.367 OA
ATOM     16  H   UNL     1       9.717  -8.098   0.000  0.00  0.00    +0.212 HD
ENDBRANCH  14  15
ENDBRANCH  10  11
BRANCH  32  33
ATOM     33  O   UNL     1       3.517   8.333   0.000  0.00  0.00    -0.391 OA
ATOM     34  H   UNL     1       4.452   8.592   0.000  0.00  0.00    +0.210 HD
ENDBRANCH  32  33
BRANCH  37  38
ATOM     38  O   UNL     1      -0.233   8.298   0.000  0.00  0.00    -0.391 OA
ATOM     39  H   UNL     1       0.446   8.990   0.000  0.00  0.00    +0.210 HD
ENDBRANCH  37  38
BRANCH  45  46
ATOM     46  O   UNL     1      -5.309   3.127   0.000  0.00  0.00    -0.375 OA
ATOM     47  C   UNL     1      -6.360   2.056   0.000  0.00  0.00    +0.194 C 
ENDBRANCH  45  46
BRANCH  57  58
ATOM     58  O   UNL     1       2.978  -0.652   0.000  0.00  0.00    -0.506 OA
ATOM     59  H   UNL     1       3.908  -0.765   0.000  0.00  0.00    +0.292 HD
ENDBRANCH  57  58
BRANCH  42  48
ATOM     48  O   UNL     1      -3.464   6.392   0.000  0.00  0.00    -0.461 OA
BRANCH  48  49
ATOM     49  C   UNL     1      -4.957   6.247   0.000  0.00  0.00    +0.304 C 
ATOM     50  C   UNL     1      -5.578   4.882   0.000  0.00  0.00    +0.136 C 
ATOM     51  O   UNL     1      -5.829   7.468   0.000  0.00  0.00    -0.251 OA
ENDBRANCH  48  49
ENDBRANCH  42  48
TORSDOF 8