REMARK  Name = NSC 133100#1
REMARK  17 active torsions:
REMARK  status: ('A' for Active; 'I' for Inactive)
REMARK    1  A    between atoms: C_4  and  O_5
REMARK    2  A    between atoms: O_5  and  C_6
REMARK    3  A    between atoms: C_7  and  C_8
REMARK    4  A    between atoms: C_9  and  O_10
REMARK    5  A    between atoms: O_10  and  C_11
REMARK    6  A    between atoms: C_11  and  C_12
REMARK    7  A    between atoms: C_14  and  C_15
REMARK    8  A    between atoms: C_16  and  O_17
REMARK    9  A    between atoms: C_18  and  C_19
REMARK   10  A    between atoms: C_20  and  O_21
REMARK   11  A    between atoms: C_22  and  C_23
REMARK   12  A    between atoms: C_27  and  C_28
REMARK   13  A    between atoms: C_33  and  O_34
REMARK   14  A    between atoms: C_40  and  C_41
REMARK   15  A    between atoms: C_42  and  O_43
REMARK   16  A    between atoms: C_46  and  O_47
REMARK   17  A    between atoms: C_49  and  C_50
REMARK                            x       y       z     vdW  Elec       q    Type
REMARK                         _______ _______ _______ _____ _____    ______ ____
ROOT
ATOM      1  O   UNL     1     -14.636   9.280   0.000  0.00  0.00    -0.453 OA
ATOM      2  C   UNL     1     -14.247   7.831   0.000  0.00  0.00    +0.190 C 
ATOM      3  C   UNL     1     -14.247   6.331   0.000  0.00  0.00    +0.042 C 
ATOM      4  C   UNL     1     -13.497   5.032   0.000  0.00  0.00    +0.150 C 
ATOM      7  C   UNL     1     -12.437   3.971   0.000  0.00  0.00    +0.060 C 
ATOM      8  C   UNL     1     -13.350   2.781   0.000  0.00  0.00    +0.014 C 
ATOM      9  C   UNL     1     -11.138   3.221   0.000  0.00  0.00    +0.187 C 
ATOM     14  C   UNL     1      -9.689   2.833   0.000  0.00  0.00    +0.056 C 
ATOM     15  C   UNL     1      -9.885   1.345   0.000  0.00  0.00    +0.014 C 
ATOM     16  C   UNL     1      -8.189   2.833   0.000  0.00  0.00    +0.126 C 
ATOM     19  C   UNL     1      -6.740   3.221   0.000  0.00  0.00    +0.044 C 
ATOM     20  C   UNL     1      -6.166   1.835   0.000  0.00  0.00    +0.013 C 
ATOM     21  C   UNL     1      -5.441   3.971   0.000  0.00  0.00    +0.126 C 
ATOM     24  C   UNL     1      -4.380   5.032   0.000  0.00  0.00    +0.037 C 
ATOM     25  C   UNL     1      -3.190   4.119   0.000  0.00  0.00    +0.014 C 
ATOM     26  C   UNL     1      -3.630   6.331   0.000  0.00  0.00    -0.021 C 
ATOM     27  C   UNL     1      -3.630   7.831   0.000  0.00  0.00    -0.003 C 
ATOM     28  C   UNL     1      -3.242   9.280   0.000  0.00  0.00    +0.008 C 
ATOM     29  C   UNL     1      -3.630  10.728   0.000  0.00  0.00    +0.012 C 
ATOM     30  C   UNL     1      -2.244  11.303   0.000  0.00  0.00    +0.049 C 
ATOM     31  C   UNL     1      -4.380  12.028   0.000  0.00  0.00    +0.244 C 
ATOM     32  N   UNL     1      -5.441  13.088   0.000  0.00  0.00    -0.279 N 
ATOM     33  H   UNL     1      -4.842  13.869   0.000  0.00  0.00    +0.155 HD
ATOM     34  C   UNL     1      -6.740  13.838   0.000  0.00  0.00    +0.080 A 
ATOM     35  C   UNL     1      -8.189  14.226   0.000  0.00  0.00    +0.073 A 
ATOM     36  C   UNL     1      -9.689  14.226   0.000  0.00  0.00    +0.127 A 
ATOM     39  C   UNL     1     -11.138  13.838   0.000  0.00  0.00    +0.045 A 
ATOM     40  C   UNL     1     -12.437  13.088   0.000  0.00  0.00    +0.079 A 
ATOM     41  C   UNL     1     -13.498  12.027   0.000  0.00  0.00    +0.250 C 
ATOM     42  O   UNL     1     -14.688  12.941   0.000  0.00  0.00    -0.284 OA
ATOM     43  C   UNL     1     -13.736  13.838   0.000  0.00  0.00    +0.144 A 
ATOM     44  C   UNL     1     -13.736  15.338   0.000  0.00  0.00    +0.034 A 
ATOM     45  C   UNL     1     -15.035  16.088   0.000  0.00  0.00    +0.051 C 
ATOM     46  C   UNL     1     -12.437  16.088   0.000  0.00  0.00    +0.135 A 
ATOM     49  O   UNL     1     -15.122  11.947   0.000  0.00  0.00    -0.444 OA
ATOM     50  C   UNL     1     -11.138  15.338   0.000  0.00  0.00    +0.071 A 
ATOM     51  C   UNL     1      -9.822  16.058   0.000  0.00  0.00    +0.149 A 
ATOM     54  O   UNL     1      -3.190  12.941   0.000  0.00  0.00    -0.270 OA
ATOM     55  C   UNL     1     -14.248  10.728   0.000  0.00  0.00    +0.314 C 
ATOM     56  C   UNL     1     -12.799  10.340   0.000  0.00  0.00    +0.114 C 
ENDROOT
BRANCH   4   5
ATOM      5  O   UNL     1     -14.687   4.118   0.000  0.00  0.00    -0.375 OA
ATOM      6  C   UNL     1     -14.492   2.631   0.000  0.00  0.00    +0.194 C 
ENDBRANCH   4   5
BRANCH  16  17
ATOM     17  O   UNL     1      -7.993   1.345   0.000  0.00  0.00    -0.391 OA
ATOM     18  H   UNL     1      -8.763   0.755   0.000  0.00  0.00    +0.210 HD
ENDBRANCH  16  17
BRANCH  21  22
ATOM     22  O   UNL     1      -4.528   2.781   0.000  0.00  0.00    -0.391 OA
ATOM     23  H   UNL     1      -4.899   1.885   0.000  0.00  0.00    +0.210 HD
ENDBRANCH  21  22
BRANCH  36  37
ATOM     37  O   UNL     1      -9.885  15.714   0.000  0.00  0.00    -0.506 OA
ATOM     38  H   UNL     1      -9.141  16.284   0.000  0.00  0.00    +0.292 HD
ENDBRANCH  36  37
BRANCH  46  47
ATOM     47  O   UNL     1     -12.437  17.588   0.000  0.00  0.00    -0.506 OA
ATOM     48  H   UNL     1     -11.625  18.057   0.000  0.00  0.00    +0.292 HD
ENDBRANCH  46  47
BRANCH  51  52
ATOM     52  O   UNL     1      -9.729  17.555   0.000  0.00  0.00    -0.504 OA
ATOM     53  H   UNL     1      -8.890  17.972   0.000  0.00  0.00    +0.292 HD
ENDBRANCH  51  52
BRANCH   9  10
ATOM     10  O   UNL     1     -11.944   1.956   0.000  0.00  0.00    -0.461 OA
BRANCH  10  11
ATOM     11  C   UNL     1     -11.251   0.625   0.000  0.00  0.00    +0.304 C 
ATOM     12  C   UNL     1      -9.752   0.560   0.000  0.00  0.00    +0.136 C 
ATOM     13  O   UNL     1     -12.057  -0.640   0.000  0.00  0.00    -0.251 OA
ENDBRANCH  10  11
ENDBRANCH   9  10
TORSDOF 8