REMARK  Name = NSC 135962
REMARK  21 active torsions:
REMARK  status: ('A' for Active; 'I' for Inactive)
REMARK    1  A    between atoms: O_1  and  C_2
REMARK    2  A    between atoms: O_1  and  C_18
REMARK    3  A    between atoms: C_2  and  C_3
REMARK    4  A    between atoms: C_4  and  O_5
REMARK    5  A    between atoms: C_6  and  O_7
REMARK    6  A    between atoms: C_8  and  N_9
REMARK    7  A    between atoms: C_18  and  C_20
REMARK    8  A    between atoms: C_20  and  C_21
REMARK    9  A    between atoms: C_21  and  C_22
REMARK   10  A    between atoms: C_22  and  C_23
REMARK   11  A    between atoms: C_23  and  C_24
REMARK   12  A    between atoms: C_24  and  C_25
REMARK   13  A    between atoms: C_25  and  C_26
REMARK   14  A    between atoms: C_26  and  C_27
REMARK   15  A    between atoms: C_27  and  C_28
REMARK   16  A    between atoms: C_28  and  C_29
REMARK   17  A    between atoms: C_29  and  C_30
REMARK   18  A    between atoms: C_30  and  C_31
REMARK   19  A    between atoms: C_31  and  C_32
REMARK   20  A    between atoms: C_32  and  C_33
REMARK   21  A    between atoms: C_33  and  C_34
REMARK                            x       y       z     vdW  Elec       q    Type
REMARK                         _______ _______ _______ _____ _____    ______ ____
ROOT
ATOM      2  C   UNL     1       9.530  -2.736   0.000  0.00  0.00    +0.266 C 
ENDROOT
BRANCH   2   3
ATOM      3  C   UNL     1      10.956  -3.199   0.000  0.00  0.00    +0.189 C 
ATOM      4  C   UNL     1      11.420  -4.626   0.000  0.00  0.00    +0.179 C 
ATOM      7  C   UNL     1      12.920  -4.626   0.000  0.00  0.00    +0.195 C 
ATOM     10  C   UNL     1      13.383  -3.199   0.000  0.00  0.00    +0.255 C 
ATOM     21  O   UNL     1      12.170  -2.317   0.000  0.00  0.00    -0.345 OA
BRANCH  10  11
ATOM     11  N   UNL     1      14.810  -2.736   0.000  0.00  0.00    -0.270 N 
ATOM     12  C   UNL     1      15.122  -1.268   0.000  0.00  0.00    +0.352 A 
ATOM     13  N   UNL     1      16.548  -0.805   0.000  0.00  0.00    -0.178 NA
ATOM     14  C   UNL     1      17.663  -1.809   0.000  0.00  0.00    +0.123 A 
ATOM     15  N   UNL     1      19.090  -1.345   0.000  0.00  0.00    -0.343 N 
ATOM     16  H   UNL     1      19.294  -0.382   0.000  0.00  0.00    +0.144 HD
ATOM     17  H   UNL     1      19.821  -2.004   0.000  0.00  0.00    +0.144 HD
ATOM     18  C   UNL     1      17.351  -3.276   0.000  0.00  0.00    +0.061 A 
ATOM     19  O   UNL     1      14.007  -0.265   0.000  0.00  0.00    -0.244 OA
ATOM     20  C   UNL     1      15.925  -3.739   0.000  0.00  0.00    +0.096 A 
ENDBRANCH  10  11
BRANCH   4   5
ATOM      5  O   UNL     1      10.538  -5.839   0.000  0.00  0.00    -0.386 OA
ATOM      6  H   UNL     1       9.573  -5.738   0.000  0.00  0.00    +0.210 HD
ENDBRANCH   4   5
BRANCH   7   8
ATOM      8  O   UNL     1      12.038  -3.412   0.000  0.00  0.00    -0.385 OA
ATOM      9  H   UNL     1      12.433  -2.526   0.000  0.00  0.00    +0.210 HD
ENDBRANCH   7   8
ENDBRANCH   2   3
BRANCH   2   1
ATOM      1  O   UNL     1       8.415  -3.739   0.000  0.00  0.00    -0.462 OA
BRANCH   1  22
ATOM     22  C   UNL     1       6.988  -3.276   0.000  0.00  0.00    +0.307 C 
ATOM     23  O   UNL     1       5.874  -4.279   0.000  0.00  0.00    -0.251 OA
BRANCH  22  24
ATOM     24  C   UNL     1       6.676  -1.809   0.000  0.00  0.00    +0.120 C 
BRANCH  24  25
ATOM     25  C   UNL     1       7.791  -0.805   0.000  0.00  0.00    +0.011 C 
BRANCH  25  26
ATOM     26  C   UNL     1       7.479   0.662   0.000  0.00  0.00    +0.001 C 
BRANCH  26  27
ATOM     27  C   UNL     1       8.594   1.666   0.000  0.00  0.00    +0.000 C 
BRANCH  27  28
ATOM     28  C   UNL     1       8.282   3.133   0.000  0.00  0.00    +0.000 C 
BRANCH  28  29
ATOM     29  C   UNL     1       9.397   4.137   0.000  0.00  0.00    +0.000 C 
BRANCH  29  30
ATOM     30  C   UNL     1       9.085   5.604   0.000  0.00  0.00    -0.000 C 
BRANCH  30  31
ATOM     31  C   UNL     1      10.200   6.608   0.000  0.00  0.00    -0.000 C 
BRANCH  31  32
ATOM     32  C   UNL     1      11.626   6.144   0.000  0.00  0.00    -0.000 C 
BRANCH  32  33
ATOM     33  C   UNL     1      11.938   4.677   0.000  0.00  0.00    -0.000 C 
BRANCH  33  34
ATOM     34  C   UNL     1      10.823   3.674   0.000  0.00  0.00    -0.000 C 
BRANCH  34  35
ATOM     35  C   UNL     1      11.135   2.206   0.000  0.00  0.00    -0.000 C 
BRANCH  35  36
ATOM     36  C   UNL     1      10.021   1.203   0.000  0.00  0.00    -0.000 C 
BRANCH  36  37
ATOM     37  C   UNL     1      10.333  -0.265   0.000  0.00  0.00    -0.003 C 
ATOM     38  C   UNL     1       9.218  -1.268   0.000  0.00  0.00    +0.004 C 
ENDBRANCH  36  37
ENDBRANCH  35  36
ENDBRANCH  34  35
ENDBRANCH  33  34
ENDBRANCH  32  33
ENDBRANCH  31  32
ENDBRANCH  30  31
ENDBRANCH  29  30
ENDBRANCH  28  29
ENDBRANCH  27  28
ENDBRANCH  26  27
ENDBRANCH  25  26
ENDBRANCH  24  25
ENDBRANCH  22  24
ENDBRANCH   1  22
ENDBRANCH   2   1
TORSDOF 20