REMARK  Name = NSC 148790
REMARK  8 active torsions:
REMARK  status: ('A' for Active; 'I' for Inactive)
REMARK    1  A    between atoms: C_3  and  C_4
REMARK    2  A    between atoms: C_5  and  C_6
REMARK    3  A    between atoms: C_7  and  O_8
REMARK    4  A    between atoms: C_14  and  O_15
REMARK    5  A    between atoms: C_18  and  C_19
REMARK    6  A    between atoms: C_24  and  O_25
REMARK    7  A    between atoms: O_25  and  C_26
REMARK    8  A    between atoms: C_26  and  C_27
REMARK                            x       y       z     vdW  Elec       q    Type
REMARK                         _______ _______ _______ _____ _____    ______ ____
ROOT
ATOM      4  C   UNL     1       1.255  -6.660   0.000  0.00  0.00    +0.068 C 
ATOM      5  C   UNL     1       0.374  -7.874   0.000  0.00  0.00    +0.007 C 
ATOM      6  C   UNL     1      -0.377  -6.574   0.000  0.00  0.00    +0.015 C 
ATOM      7  C   UNL     1       1.255  -9.087   0.000  0.00  0.00    +0.079 C 
ATOM     10  C   UNL     1       0.645 -10.457   0.000  0.00  0.00    +0.025 C 
ATOM     11  C   UNL     1       1.527 -11.671   0.000  0.00  0.00    +0.007 C 
ATOM     12  C   UNL     1       0.917 -13.041   0.000  0.00  0.00    +0.004 C 
ATOM     13  C   UNL     1      -0.575 -13.198   0.000  0.00  0.00    -0.002 C 
ATOM     14  C   UNL     1      -1.185 -14.568   0.000  0.00  0.00    +0.035 C 
ATOM     15  C   UNL     1      -2.677 -14.725   0.000  0.00  0.00    +0.115 C 
ATOM     18  C   UNL     1      -3.559 -13.512   0.000  0.00  0.00    +0.032 C 
ATOM     19  C   UNL     1      -2.949 -12.141   0.000  0.00  0.00    +0.010 C 
ATOM     20  C   UNL     1      -1.457 -11.985   0.000  0.00  0.00    -0.026 C 
ATOM     21  C   UNL     1      -2.338 -10.771   0.000  0.00  0.00    +0.012 C 
ATOM     22  C   UNL     1      -0.847 -10.614   0.000  0.00  0.00    +0.001 C 
ATOM     23  C   UNL     1      -1.728  -9.401   0.000  0.00  0.00    +0.005 C 
ATOM     24  C   UNL     1       2.682  -8.624   0.000  0.00  0.00    +0.080 C 
ATOM     25  C   UNL     1      -1.118  -8.030   0.000  0.00  0.00    +0.010 C 
ATOM     26  C   UNL     1       2.682  -7.124   0.000  0.00  0.00    +0.187 C 
ENDROOT
BRANCH   4   3
ATOM      1  O   UNL     1      -0.635  -3.270   0.000  0.00  0.00    -0.457 OA
ATOM      2  C   UNL     1      -0.635  -4.770   0.000  0.00  0.00    +0.264 C 
ATOM      3  C   UNL     1       0.792  -5.234   0.000  0.00  0.00    -0.019 C 
ATOM     31  C   UNL     1       1.673  -4.020   0.000  0.00  0.00    +0.094 C 
ATOM     32  C   UNL     1       0.792  -2.806   0.000  0.00  0.00    +0.332 C 
ATOM     33  O   UNL     1       1.255  -1.380   0.000  0.00  0.00    -0.246 OA
ENDBRANCH   4   3
BRANCH   7   8
ATOM      8  O   UNL     1       2.259 -10.202   0.000  0.00  0.00    -0.388 OA
ATOM      9  H   UNL     1       1.959 -11.124   0.000  0.00  0.00    +0.210 HD
ENDBRANCH   7   8
BRANCH  15  16
ATOM     16  O   UNL     1      -3.287 -16.096   0.000  0.00  0.00    -0.392 OA
ATOM     17  H   UNL     1      -4.252 -16.197   0.000  0.00  0.00    +0.210 HD
ENDBRANCH  15  16
BRANCH  26  27
ATOM     27  O   UNL     1       3.895  -6.242   0.000  0.00  0.00    -0.461 OA
BRANCH  27  28
ATOM     28  C   UNL     1       5.266  -6.852   0.000  0.00  0.00    +0.304 C 
ATOM     29  C   UNL     1       5.422  -8.344   0.000  0.00  0.00    +0.136 C 
ATOM     30  O   UNL     1       6.479  -5.970   0.000  0.00  0.00    -0.251 OA
ENDBRANCH  27  28
ENDBRANCH  26  27
TORSDOF 5