REMARK  Name = NSC 145118
REMARK  9 active torsions:
REMARK  status: ('A' for Active; 'I' for Inactive)
REMARK    1  A    between atoms: C_1  and  C_2
REMARK    2  A    between atoms: C_7  and  O_22
REMARK    3  A    between atoms: C_10  and  C_21
REMARK    4  A    between atoms: C_13  and  O_14
REMARK    5  A    between atoms: C_18  and  C_19
REMARK    6  A    between atoms: C_24  and  C_25
REMARK    7  A    between atoms: C_29  and  N_30
REMARK    8  A    between atoms: C_32  and  C_34
REMARK    9  A    between atoms: C_34  and  C_36
REMARK                            x       y       z     vdW  Elec       q    Type
REMARK                         _______ _______ _______ _____ _____    ______ ____
ROOT
ATOM      1  C   UNL     1      10.763   5.132   0.000  0.00  0.00    +0.033 C 
ATOM      2  C   UNL     1       9.427   5.813   0.000  0.00  0.00    +0.145 C 
ATOM      3  C   UNL     1      10.726   6.563   0.000  0.00  0.00    +0.323 C 
ATOM      4  O   UNL     1      10.726   8.063   0.000  0.00  0.00    -0.460 OA
ATOM      5  C   UNL     1       9.427   8.813   0.000  0.00  0.00    +0.189 C 
ATOM      6  C   UNL     1       7.463   7.994   0.000  0.00  0.00    +0.081 C 
ATOM      7  C   UNL     1       5.996   8.306   0.000  0.00  0.00    +0.141 C 
ATOM      8  C   UNL     1       4.529   7.994   0.000  0.00  0.00    +0.004 C 
ATOM      9  C   UNL     1       3.315   7.112   0.000  0.00  0.00    +0.001 C 
ATOM     10  C   UNL     1       2.565   5.813   0.000  0.00  0.00    -0.054 C 
ATOM     11  C   UNL     1       2.408   4.322   0.000  0.00  0.00    -0.021 C 
ATOM     12  C   UNL     1       2.872   2.895   0.000  0.00  0.00    +0.063 C 
ATOM     13  C   UNL     1       3.876   1.780   0.000  0.00  0.00    +0.141 C 
ATOM     16  C   UNL     1       5.246   1.170   0.000  0.00  0.00    +0.004 C 
ATOM     17  C   UNL     1       6.746   1.170   0.000  0.00  0.00    +0.001 C 
ATOM     18  C   UNL     1       8.116   1.780   0.000  0.00  0.00    -0.053 C 
ATOM     19  C   UNL     1       8.998   0.567   0.000  0.00  0.00    +0.043 C 
ATOM     20  C   UNL     1       9.120   2.895   0.000  0.00  0.00    -0.000 C 
ATOM     21  C   UNL     1       1.139   6.277   0.000  0.00  0.00    +0.043 C 
ATOM     24  C   UNL     1       8.128   8.063   0.000  0.00  0.00    +0.094 C 
ATOM     25  C   UNL     1       6.829   8.813   0.000  0.00  0.00    +0.019 C 
ATOM     26  O   UNL     1      12.025   5.813   0.000  0.00  0.00    -0.250 OA
ATOM     27  C   UNL     1       8.128   6.563   0.000  0.00  0.00    +0.158 C 
ATOM     28  O   UNL     1       6.829   5.813   0.000  0.00  0.00    -0.296 OA
ATOM     29  C   UNL     1       9.584   4.322   0.000  0.00  0.00    +0.120 C 
ENDROOT
BRANCH  29  30
ATOM     30  N   UNL     1      11.025   3.908   0.000  0.00  0.00    -0.301 N 
ATOM     31  H   UNL     1      12.104   4.950   0.000  0.00  0.00    +0.150 HD
ATOM     32  C   UNL     1      11.388   2.453   0.000  0.00  0.00    +0.280 C 
ATOM     33  O   UNL     1      10.309   1.411   0.000  0.00  0.00    -0.267 OA
BRANCH  32  34
ATOM     34  C   UNL     1      12.830   2.039   0.000  0.00  0.00    +0.214 C 
ATOM     35  O   UNL     1      13.909   3.081   0.000  0.00  0.00    -0.288 OA
ATOM     36  C   UNL     1      13.193   0.584   0.000  0.00  0.00    +0.096 C 
ENDBRANCH  32  34
ENDBRANCH  29  30
BRANCH  13  14
ATOM     14  O   UNL     1       2.994   0.567   0.000  0.00  0.00    -0.387 OA
ATOM     15  H   UNL     1       1.502   0.724   0.000  0.00  0.00    +0.210 HD
ENDBRANCH  13  14
BRANCH   7  22
ATOM     22  O   UNL     1       5.996   9.806   0.000  0.00  0.00    -0.388 OA
ATOM     23  H   UNL     1       7.295  10.556   0.000  0.00  0.00    +0.210 HD
ENDBRANCH   7  22
TORSDOF 4