REMARK  Name = NSC 13252#1
REMARK  10 active torsions:
REMARK  status: ('A' for Active; 'I' for Inactive)
REMARK    1  A    between atoms: C_5  and  O_6
REMARK    2  A    between atoms: C_10  and  O_11
REMARK    3  A    between atoms: C_12  and  O_13
REMARK    4  A    between atoms: C_15  and  C_16
REMARK    5  A    between atoms: C_19  and  O_20
REMARK    6  A    between atoms: C_21  and  N_22
REMARK    7  A    between atoms: N_22  and  C_23
REMARK    8  A    between atoms: N_22  and  C_24
REMARK    9  A    between atoms: C_31  and  O_32
REMARK   10  A    between atoms: C_31  and  C_33
REMARK                            x       y       z     vdW  Elec       q    Type
REMARK                         _______ _______ _______ _____ _____    ______ ____
ROOT
ATOM      1 CL   UNL     1       2.049   6.750   0.000  0.00  0.00    -0.083 Cl
ATOM      2  C   UNL     1       2.049   5.250   0.000  0.00  0.00    +0.048 A 
ATOM      3  C   UNL     1       0.750   4.500   0.000  0.00  0.00    +0.024 A 
ATOM      4  C   UNL     1       0.750   3.000   0.000  0.00  0.00    +0.047 A 
ATOM      5  C   UNL     1       2.049   2.250   0.000  0.00  0.00    +0.128 A 
ATOM      8  C   UNL     1       3.348   3.000   0.000  0.00  0.00    +0.071 A 
ATOM      9  C   UNL     1       4.647   2.250   0.000  0.00  0.00    +0.197 C 
ATOM     10  C   UNL     1       5.946   3.000   0.000  0.00  0.00    +0.047 C 
ATOM     11  C   UNL     1       7.245   2.250   0.000  0.00  0.00    +0.141 C 
ATOM     14  C   UNL     1       8.544   3.000   0.000  0.00  0.00    +0.190 C 
ATOM     17  C   UNL     1       9.843   2.250   0.000  0.00  0.00    +0.211 C 
ATOM     18  C   UNL     1      11.142   3.000   0.000  0.00  0.00    +0.121 C 
ATOM     24  C   UNL     1      11.142   4.500   0.000  0.00  0.00    +0.127 C 
ATOM     27  C   UNL     1       9.843   5.250   0.000  0.00  0.00    +0.129 C 
ATOM     31  O   UNL     1       9.843   0.750   0.000  0.00  0.00    -0.288 OA
ATOM     32  C   UNL     1       8.544   4.500   0.000  0.00  0.00    +0.061 C 
ATOM     33  C   UNL     1       7.245   5.250   0.000  0.00  0.00    +0.020 C 
ATOM     34  C   UNL     1       5.946   4.500   0.000  0.00  0.00    +0.063 C 
ATOM     35  C   UNL     1       4.647   5.250   0.000  0.00  0.00    +0.097 C 
ATOM     38  C   UNL     1       3.683   6.399   0.000  0.00  0.00    +0.047 C 
ATOM     39  O   UNL     1       4.647   0.750   0.000  0.00  0.00    -0.287 OA
ATOM     40  C   UNL     1       3.348   4.500   0.000  0.00  0.00    +0.017 A 
ENDROOT
BRANCH  18  19
ATOM     19  C   UNL     1      12.441   2.250   0.000  0.00  0.00    +0.248 C 
ATOM     20  N   UNL     1      12.441   0.750   0.000  0.00  0.00    -0.325 N 
ATOM     21  H   UNL     1      13.294   0.258   0.000  0.00  0.00    +0.145 HD
ATOM     22  H   UNL     1      11.589   0.258   0.000  0.00  0.00    +0.145 HD
ATOM     23  O   UNL     1      13.740   3.000   0.000  0.00  0.00    -0.270 OA
ENDBRANCH  18  19
BRANCH  27  28
ATOM     28  N   UNL     1      10.807   6.399   0.000  0.00  0.00    -0.299 NA
ATOM     29  C   UNL     1      10.294   7.809   0.000  0.00  0.00    +0.105 C 
ATOM     30  C   UNL     1      12.285   6.139   0.000  0.00  0.00    +0.105 C 
ENDBRANCH  27  28
BRANCH   5   6
ATOM      6  O   UNL     1       2.049   0.750   0.000  0.00  0.00    -0.506 OA
ATOM      7  H   UNL     1       1.238   0.281   0.000  0.00  0.00    +0.292 HD
ENDBRANCH   5   6
BRANCH  11  12
ATOM     12  O   UNL     1       7.245   0.750   0.000  0.00  0.00    -0.507 OA
ATOM     13  H   UNL     1       6.434   0.281   0.000  0.00  0.00    +0.292 HD
ENDBRANCH  11  12
BRANCH  14  15
ATOM     15  O   UNL     1       8.544   1.500   0.000  0.00  0.00    -0.373 OA
ATOM     16  H   UNL     1       7.704   1.015   0.000  0.00  0.00    +0.211 HD
ENDBRANCH  14  15
BRANCH  24  25
ATOM     25  O   UNL     1      12.441   5.250   0.000  0.00  0.00    -0.509 OA
ATOM     26  H   UNL     1      13.253   4.781   0.000  0.00  0.00    +0.292 HD
ENDBRANCH  24  25
BRANCH  35  36
ATOM     36  O   UNL     1       5.397   6.549   0.000  0.00  0.00    -0.384 OA
ATOM     37  H   UNL     1       6.367   6.549   0.000  0.00  0.00    +0.211 HD
ENDBRANCH  35  36
TORSDOF 7