REMARK  Name = NSC 15307
REMARK  5 active torsions:
REMARK  status: ('A' for Active; 'I' for Inactive)
REMARK    1  A    between atoms: C_4  and  C_5
REMARK    2  A    between atoms: C_5  and  C_7
REMARK    3  A    between atoms: C_12  and  C_13
REMARK    4  A    between atoms: C_19  and  O_20
REMARK    5  A    between atoms: O_20  and  C_21
REMARK                            x       y       z     vdW  Elec       q    Type
REMARK                         _______ _______ _______ _____ _____    ______ ____
ROOT
ATOM      1  N   UNL     1       7.520   2.525   0.000  0.00  0.00    -0.255 NA
ATOM      2  C   UNL     1       6.221   1.775   0.000  0.00  0.00    +0.072 A 
ATOM      3  C   UNL     1       6.221   0.275   0.000  0.00  0.00    +0.014 A 
ATOM      4  C   UNL     1       7.520  -0.475   0.000  0.00  0.00    +0.030 A 
ATOM     17  C   UNL     1       8.819   0.275   0.000  0.00  0.00    +0.032 A 
ATOM     18  C   UNL     1       4.922  -0.475   0.000  0.00  0.00    +0.056 A 
ATOM     19  C   UNL     1       3.623   0.275   0.000  0.00  0.00    +0.121 A 
ATOM     22  C   UNL     1       3.623   1.775   0.000  0.00  0.00    +0.048 A 
ATOM     23  C   UNL     1       4.922   2.525   0.000  0.00  0.00    +0.032 A 
ATOM     24  C   UNL     1       8.819   1.775   0.000  0.00  0.00    +0.112 A 
ENDROOT
BRANCH   4   5
ATOM      5  C   UNL     1       7.520  -1.976   0.000  0.00  0.00    +0.181 C 
ATOM      6  O   UNL     1       6.221  -2.725   0.000  0.00  0.00    -0.290 OA
BRANCH   5   7
ATOM      7  C   UNL     1       8.819  -2.725   0.000  0.00  0.00    +0.128 C 
ATOM      8  C   UNL     1       8.819  -4.226   0.000  0.00  0.00    +0.031 C 
ATOM      9  C   UNL     1      10.118  -4.975   0.000  0.00  0.00    +0.000 C 
ATOM     10  C   UNL     1      10.811  -3.775   0.000  0.00  0.00    +0.019 C 
ATOM     11  C   UNL     1       9.425  -3.176   0.000  0.00  0.00    +0.085 C 
ATOM     12  C   UNL     1      11.417  -4.225   0.000  0.00  0.00    +0.028 C 
ATOM     15  C   UNL     1      11.417  -2.725   0.000  0.00  0.00    +0.093 C 
ATOM     16  N   UNL     1      10.118  -1.975   0.000  0.00  0.00    -0.292 NA
BRANCH  12  13
ATOM     13  C   UNL     1      12.716  -4.975   0.000  0.00  0.00    -0.030 C 
ATOM     14  C   UNL     1      14.015  -4.225   0.000  0.00  0.00    +0.004 C 
ENDBRANCH  12  13
ENDBRANCH   5   7
ENDBRANCH   4   5
BRANCH  19  20
ATOM     20  O   UNL     1       2.324  -0.475   0.000  0.00  0.00    -0.495 OA
ATOM     21  C   UNL     1       1.025   0.275   0.000  0.00  0.00    +0.277 C 
ENDBRANCH  19  20
TORSDOF 4