REMARK  Name = NSC 142227
REMARK  7 active torsions:
REMARK  status: ('A' for Active; 'I' for Inactive)
REMARK    1  A    between atoms: C_4  and  C_5
REMARK    2  A    between atoms: C_5  and  C_20
REMARK    3  A    between atoms: C_6  and  C_7
REMARK    4  A    between atoms: C_7  and  O_8
REMARK    5  A    between atoms: O_8  and  C_9
REMARK    6  A    between atoms: C_22  and  C_23
REMARK    7  A    between atoms: C_22  and  C_24
REMARK                            x       y       z     vdW  Elec       q    Type
REMARK                         _______ _______ _______ _____ _____    ______ ____
ROOT
ATOM      7  C   UNL     1       8.300   1.083   0.000  0.00  0.00    +0.257 C 
ENDROOT
BRANCH   7   6
ATOM      5  C   UNL     1       6.050   2.382   0.000  0.00  0.00    -0.009 C 
ATOM      6  C   UNL     1       6.800   1.083   0.000  0.00  0.00    +0.020 C 
ATOM     20  C   UNL     1       6.800   3.681   0.000  0.00  0.00    +0.047 C 
BRANCH   5   4
ATOM      1  O   UNL     1       1.028   0.750   0.000  0.00  0.00    -0.288 OA
ATOM      2  C   UNL     1       2.242   1.632   0.000  0.00  0.00    +0.202 C 
ATOM      3  C   UNL     1       3.668   1.168   0.000  0.00  0.00    +0.096 C 
ATOM      4  C   UNL     1       4.550   2.382   0.000  0.00  0.00    +0.128 C 
ATOM     21  O   UNL     1       3.668   3.595   0.000  0.00  0.00    -0.478 OA
ATOM     22  C   UNL     1       2.242   3.132   0.000  0.00  0.00    +0.166 C 
ATOM     23  C   UNL     1       0.750   2.975   0.000  0.00  0.00    +0.064 C 
ATOM     24  C   UNL     1       1.930   4.599   0.000  0.00  0.00    +0.064 C 
ENDBRANCH   5   4
ENDBRANCH   7   6
BRANCH   7   8
ATOM      8  O   UNL     1       9.050   2.382   0.000  0.00  0.00    -0.488 OA
BRANCH   8   9
ATOM      9  C   UNL     1      10.550   2.382   0.000  0.00  0.00    +0.124 A 
ATOM     10  C   UNL     1      11.300   1.083   0.000  0.00  0.00    +0.046 A 
ATOM     11  C   UNL     1      12.800   1.083   0.000  0.00  0.00    +0.015 A 
ATOM     12  C   UNL     1      13.550   2.382   0.000  0.00  0.00    +0.018 A 
ATOM     13  C   UNL     1      15.050   2.382   0.000  0.00  0.00    +0.018 A 
ATOM     14  C   UNL     1      15.800   3.681   0.000  0.00  0.00    +0.092 A 
ATOM     15  C   UNL     1      15.050   4.980   0.000  0.00  0.00    +0.337 A 
ATOM     16  O   UNL     1      15.800   6.279   0.000  0.00  0.00    -0.245 OA
ATOM     17  O   UNL     1      13.550   4.980   0.000  0.00  0.00    -0.422 OA
ATOM     18  C   UNL     1      12.800   3.681   0.000  0.00  0.00    +0.143 A 
ATOM     19  C   UNL     1      11.300   3.681   0.000  0.00  0.00    +0.092 A 
ENDBRANCH   8   9
ENDBRANCH   7   8
TORSDOF 4