REMARK  Name = NSC 157035
REMARK  2 active torsions:
REMARK  status: ('A' for Active; 'I' for Inactive)
REMARK    1  A    between atoms: C_10  and  C_11
REMARK    2  A    between atoms: C_15  and  C_16
REMARK                            x       y       z     vdW  Elec       q    Type
REMARK                         _______ _______ _______ _____ _____    ______ ____
ROOT
ATOM      1  C   UNL     1      -5.946  -2.250   0.000  0.00  0.00    +0.216 C 
ATOM      2  O   UNL     1      -7.373  -1.787   0.000  0.00  0.00    -0.455 OA
ATOM      3  C   UNL     1      -8.254  -3.000   0.000  0.00  0.00    +0.335 C 
ATOM      4  O   UNL     1      -9.754  -3.000   0.000  0.00  0.00    -0.245 OA
ATOM      5  C   UNL     1      -7.373  -4.213   0.000  0.00  0.00    +0.036 C 
ATOM      6  C   UNL     1      -7.836  -5.640   0.000  0.00  0.00    +0.020 C 
ATOM      7  C   UNL     1      -4.647  -1.500   0.000  0.00  0.00    +0.192 C 
ATOM      8  O   UNL     1      -3.348  -0.750   0.000  0.00  0.00    -0.361 OA
ATOM      9  C   UNL     1      -3.348  -2.250   0.000  0.00  0.00    +0.097 C 
ATOM     10  C   UNL     1      -3.088  -3.727   0.000  0.00  0.00    +0.044 C 
ATOM     11  C   UNL     1      -2.049  -1.500   0.000  0.00  0.00    +0.041 C 
ATOM     12  C   UNL     1      -0.750  -2.250   0.000  0.00  0.00    +0.030 C 
ATOM     13  C   UNL     1      -0.750  -3.750   0.000  0.00  0.00    -0.028 C 
ATOM     14  C   UNL     1      -2.049  -4.500   0.000  0.00  0.00    -0.077 C 
ATOM     15  C   UNL     1      -2.049  -6.000   0.000  0.00  0.00    +0.039 C 
ATOM     16  C   UNL     1      -3.348  -3.750   0.000  0.00  0.00    +0.031 C 
ATOM     17  C   UNL     1      -4.647  -4.500   0.000  0.00  0.00    +0.016 C 
ATOM     18  C   UNL     1      -5.946  -3.750   0.000  0.00  0.00    +0.069 C 
ENDROOT
TORSDOF 0