REMARK  Name = 
REMARK  13 active torsions:
REMARK  status: ('A' for Active; 'I' for Inactive)
REMARK    1  A    between atoms: C_1  and  C_2
REMARK    2  A    between atoms: C_3  and  C_4
REMARK    3  A    between atoms: C_4  and  O_5
REMARK    4  A    between atoms: O_5  and  C_6
REMARK    5  A    between atoms: C_10  and  C_11
REMARK    6  A    between atoms: C_11  and  N_12
REMARK    7  A    between atoms: C_17  and  C_19
REMARK    8  A    between atoms: C_19  and  O_20
REMARK    9  A    between atoms: C_22  and  O_23
REMARK   10  A    between atoms: O_23  and  C_24
REMARK   11  A    between atoms: C_24  and  C_25
REMARK   12  A    between atoms: C_27  and  C_28
REMARK   13  A    between atoms: C_37  and  C_38
REMARK                            x       y       z     vdW  Elec       q    Type
REMARK                         _______ _______ _______ _____ _____    ______ ____
ROOT
ATOM     20  C   UNL     1       0.371   3.505   0.071  0.00  0.00    +0.143 A 
ATOM     21  C   UNL     1       0.763   4.830   0.281  0.00  0.00    +0.093 A 
ATOM     22  C   UNL     1      -0.187   5.880   0.196  0.00  0.00    +0.129 A 
ATOM     33  C   UNL     1      -1.531   5.616  -0.135  0.00  0.00    +0.010 A 
ATOM     45  C   UNL     1      -1.893   4.279  -0.377  0.00  0.00    +0.032 A 
ATOM     46  C   UNL     1      -0.957   3.236  -0.260  0.00  0.00    +0.083 A 
ATOM     47 CL   UNL     1      -1.506   1.626  -0.546  0.00  0.00    -0.080 Cl
ENDROOT
BRANCH  20  19
ATOM     19  O   UNL     1       1.198   2.422   0.263  0.00  0.00    -0.486 OA
BRANCH  19  18
ATOM     18  C   UNL     1       2.581   2.539  -0.071  0.00  0.00    +0.265 C 
BRANCH  18  17
ATOM      1  C   UNL     1       4.960   1.810   1.652  0.00  0.00    +0.045 C 
ATOM      2  C   UNL     1       4.202   0.740   0.900  0.00  0.00    -0.036 A 
ATOM      3  C   UNL     1       4.517  -0.646   1.073  0.00  0.00    -0.014 A 
ATOM     14  C   UNL     1       3.936  -1.555   0.161  0.00  0.00    +0.009 A 
ATOM     15  C   UNL     1       3.038  -1.148  -0.823  0.00  0.00    +0.001 A 
ATOM     16  C   UNL     1       2.631   0.176  -0.879  0.00  0.00    +0.007 A 
ATOM     17  C   UNL     1       3.177   1.134  -0.009  0.00  0.00    -0.007 A 
BRANCH   3   4
ATOM      4  C   UNL     1       5.381  -1.184   2.176  0.00  0.00    -0.014 A 
ATOM      5  C   UNL     1       6.190  -2.326   2.003  0.00  0.00    +0.058 A 
ATOM      6  C   UNL     1       6.970  -2.843   3.046  0.00  0.00    +0.163 A 
ATOM      7  O   UNL     1       7.679  -3.987   2.777  0.00  0.00    -0.485 OA
ATOM      8  C   UNL     1       8.659  -4.257   3.787  0.00  0.00    +0.270 C 
ATOM      9  C   UNL     1       8.100  -4.023   5.181  0.00  0.00    +0.270 C 
ATOM     10  O   UNL     1       7.726  -2.653   5.353  0.00  0.00    -0.485 OA
ATOM     11  C   UNL     1       6.983  -2.214   4.290  0.00  0.00    +0.162 A 
ATOM     12  C   UNL     1       6.201  -1.088   4.496  0.00  0.00    +0.050 A 
ATOM     13  C   UNL     1       5.379  -0.615   3.467  0.00  0.00    +0.012 A 
ENDBRANCH   3   4
ENDBRANCH  18  17
ENDBRANCH  19  18
ENDBRANCH  20  19
BRANCH  22  23
ATOM     23  O   UNL     1       0.135   7.195   0.408  0.00  0.00    -0.487 OA
BRANCH  23  24
ATOM     24  C   UNL     1       1.259   7.453   1.250  0.00  0.00    +0.266 C 
BRANCH  24  25
ATOM     25  C   UNL     1       1.098   8.840   1.801  0.00  0.00    +0.009 A 
ATOM     26  C   UNL     1       0.917   9.051   3.165  0.00  0.00    +0.117 A 
ATOM     27  N   UNL     1       0.745  10.268   3.724  0.00  0.00    -0.262 NA
ATOM     28  C   UNL     1       0.744  11.335   2.888  0.00  0.00    +0.129 A 
ATOM     29  C   UNL     1       0.914  11.234   1.514  0.00  0.00    +0.070 A 
ATOM     32  C   UNL     1       1.094   9.963   0.966  0.00  0.00    +0.028 A 
BRANCH  29  30
ATOM     30  C   UNL     1       0.898  12.402   0.694  0.00  0.00    +0.101 C 
ATOM     31  N   UNL     1       0.889  13.349   0.025  0.00  0.00    -0.191 NA
ENDBRANCH  29  30
ENDBRANCH  24  25
ENDBRANCH  23  24
ENDBRANCH  22  23
BRANCH  33  34
ATOM     34  C   UNL     1      -2.601   6.718  -0.250  0.00  0.00    +0.124 C 
BRANCH  34  35
ATOM     35  N   UNL     1      -3.840   6.380   0.503  0.00  0.00    -0.286 NA
ATOM     36  C   UNL     1      -5.087   7.118   0.120  0.00  0.00    +0.166 C 
ATOM     41  C   UNL     1      -5.248   8.552   0.636  0.00  0.00    +0.030 C 
ATOM     42  C   UNL     1      -4.891   8.713   2.108  0.00  0.00    +0.003 C 
ATOM     43  C   UNL     1      -3.626   7.957   2.484  0.00  0.00    +0.015 C 
ATOM     44  C   UNL     1      -3.634   6.516   1.962  0.00  0.00    +0.085 C 
BRANCH  36  37
ATOM     37  C   UNL     1      -5.371   7.036  -1.391  0.00  0.00    +0.322 C 
ATOM     38  O   UNL     1      -5.813   7.933  -2.084  0.00  0.00    -0.249 OA
BRANCH  37  39
ATOM     39  O   UNL     1      -5.110   5.796  -1.881  0.00  0.00    -0.480 OA
ATOM     40  H   UNL     1      -4.737   5.254  -1.155  0.00  0.00    +0.295 HD
ENDBRANCH  37  39
ENDBRANCH  36  37
ENDBRANCH  34  35
ENDBRANCH  33  34
TORSDOF 12
