REMARK  Name = 
REMARK  14 active torsions:
REMARK  status: ('A' for Active; 'I' for Inactive)
REMARK    1  A    between atoms: C_1  and  C_2
REMARK    2  A    between atoms: C_3  and  C_4
REMARK    3  A    between atoms: C_4  and  O_5
REMARK    4  A    between atoms: O_5  and  C_6
REMARK    5  A    between atoms: C_10  and  C_11
REMARK    6  A    between atoms: C_11  and  N_12
REMARK    7  A    between atoms: C_14  and  O_15
REMARK    8  A    between atoms: C_17  and  C_18
REMARK    9  A    between atoms: C_18  and  O_19
REMARK   10  A    between atoms: C_21  and  O_22
REMARK   11  A    between atoms: O_22  and  C_23
REMARK   12  A    between atoms: C_23  and  C_24
REMARK   13  A    between atoms: C_26  and  C_27
REMARK   14  A    between atoms: C_36  and  C_37
REMARK                            x       y       z     vdW  Elec       q    Type
REMARK                         _______ _______ _______ _____ _____    ______ ____
ROOT
ATOM     20  C   UNL     1       0.452   3.364  -0.015  0.00  0.00    +0.143 A 
ATOM     21  C   UNL     1       0.832   4.700   0.136  0.00  0.00    +0.093 A 
ATOM     22  C   UNL     1      -0.137   5.716   0.157  0.00  0.00    +0.129 A 
ATOM     33  C   UNL     1      -1.511   5.419   0.001  0.00  0.00    +0.010 A 
ATOM     46  C   UNL     1      -1.876   4.074  -0.162  0.00  0.00    +0.032 A 
ATOM     47  C   UNL     1      -0.910   3.059  -0.142  0.00  0.00    +0.083 A 
ATOM     48 CL   UNL     1      -1.449   1.425  -0.311  0.00  0.00    -0.080 Cl
ENDROOT
BRANCH  20  19
ATOM     19  O   UNL     1       1.333   2.315   0.035  0.00  0.00    -0.486 OA
BRANCH  19  18
ATOM     18  C   UNL     1       2.640   2.507  -0.527  0.00  0.00    +0.265 C 
BRANCH  18  17
ATOM      1  C   UNL     1       5.309   1.955   0.759  0.00  0.00    +0.045 C 
ATOM      2  C   UNL     1       4.503   0.828   0.153  0.00  0.00    -0.036 A 
ATOM      3  C   UNL     1       4.925  -0.533   0.280  0.00  0.00    -0.014 A 
ATOM     14  C   UNL     1       4.263  -1.486  -0.524  0.00  0.00    +0.009 A 
ATOM     15  C   UNL     1       3.199  -1.145  -1.358  0.00  0.00    +0.001 A 
ATOM     16  C   UNL     1       2.707   0.152  -1.351  0.00  0.00    +0.007 A 
ATOM     17  C   UNL     1       3.321   1.147  -0.575  0.00  0.00    -0.007 A 
BRANCH   3   4
ATOM      4  C   UNL     1       5.979  -1.002   1.241  0.00  0.00    -0.014 A 
ATOM      5  C   UNL     1       6.820  -2.097   0.957  0.00  0.00    +0.058 A 
ATOM      6  C   UNL     1       7.778  -2.548   1.875  0.00  0.00    +0.163 A 
ATOM      7  O   UNL     1       8.506  -3.654   1.515  0.00  0.00    -0.485 OA
ATOM      8  C   UNL     1       9.637  -3.855   2.371  0.00  0.00    +0.270 C 
ATOM      9  C   UNL     1       9.284  -3.619   3.831  0.00  0.00    +0.270 C 
ATOM     10  O   UNL     1       8.862  -2.268   4.038  0.00  0.00    -0.485 OA
ATOM     11  C   UNL     1       7.941  -1.895   3.096  0.00  0.00    +0.162 A 
ATOM     12  C   UNL     1       7.131  -0.814   3.408  0.00  0.00    +0.050 A 
ATOM     13  C   UNL     1       6.136  -0.410   2.511  0.00  0.00    +0.012 A 
ENDBRANCH   3   4
ENDBRANCH  18  17
ENDBRANCH  19  18
ENDBRANCH  20  19
BRANCH  22  23
ATOM     23  O   UNL     1       0.179   7.046   0.296  0.00  0.00    -0.487 OA
BRANCH  23  24
ATOM     24  C   UNL     1       1.388   7.355   0.995  0.00  0.00    +0.264 C 
BRANCH  24  25
ATOM     25  C   UNL     1       1.271   8.761   1.532  0.00  0.00    -0.009 A 
ATOM     26  C   UNL     1       2.219   9.741   1.211  0.00  0.00    +0.007 A 
ATOM     27  C   UNL     1       2.098  11.037   1.720  0.00  0.00    +0.002 A 
ATOM     28  C   UNL     1       1.030  11.367   2.556  0.00  0.00    +0.019 A 
ATOM     29  C   UNL     1       0.081  10.397   2.889  0.00  0.00    +0.052 A 
ATOM     32  C   UNL     1       0.208   9.098   2.385  0.00  0.00    +0.025 A 
BRANCH  29  30
ATOM     30  C   UNL     1      -1.028  10.722   3.740  0.00  0.00    +0.099 C 
ATOM     31  N   UNL     1      -1.933  10.969   4.417  0.00  0.00    -0.191 NA
ENDBRANCH  29  30
ENDBRANCH  24  25
ENDBRANCH  23  24
ENDBRANCH  22  23
BRANCH  33  34
ATOM     34  C   UNL     1      -2.530   6.548  -0.081  0.00  0.00    +0.124 C 
BRANCH  34  35
ATOM     35  N   UNL     1      -3.941   6.207   0.245  0.00  0.00    -0.283 NA
ATOM     36  C   UNL     1      -4.818   7.426   0.036  0.00  0.00    +0.169 C 
ATOM     41  C   UNL     1      -5.782   7.505   1.222  0.00  0.00    +0.063 C 
ATOM     42  C   UNL     1      -5.568   6.210   1.978  0.00  0.00    +0.131 C 
ATOM     45  C   UNL     1      -4.107   5.871   1.683  0.00  0.00    +0.117 C 
BRANCH  36  37
ATOM     37  C   UNL     1      -5.587   7.292  -1.284  0.00  0.00    +0.322 C 
ATOM     38  O   UNL     1      -6.379   8.117  -1.716  0.00  0.00    -0.249 OA
BRANCH  37  39
ATOM     39  O   UNL     1      -5.281   6.147  -1.944  0.00  0.00    -0.480 OA
ATOM     40  H   UNL     1      -4.630   5.663  -1.385  0.00  0.00    +0.295 HD
ENDBRANCH  37  39
ENDBRANCH  36  37
BRANCH  42  43
ATOM     43  O   UNL     1      -6.452   5.205   1.491  0.00  0.00    -0.390 OA
ATOM     44  H   UNL     1      -6.055   4.802   0.700  0.00  0.00    +0.210 HD
ENDBRANCH  42  43
ENDBRANCH  34  35
ENDBRANCH  33  34
TORSDOF 13
