REMARK  Name = 
REMARK  14 active torsions:
REMARK  status: ('A' for Active; 'I' for Inactive)
REMARK    1  A    between atoms: C_1  and  C_2
REMARK    2  A    between atoms: C_3  and  C_4
REMARK    3  A    between atoms: C_4  and  O_5
REMARK    4  A    between atoms: O_5  and  C_6
REMARK    5  A    between atoms: C_10  and  C_11
REMARK    6  A    between atoms: C_11  and  N_12
REMARK    7  A    between atoms: N_12  and  C_13
REMARK    8  A    between atoms: C_13  and  C_14
REMARK    9  A    between atoms: C_14  and  N_15
REMARK   10  A    between atoms: C_16  and  O_17
REMARK   11  A    between atoms: O_17  and  C_18
REMARK   12  A    between atoms: C_18  and  C_19
REMARK   13  A    between atoms: C_21  and  C_22
REMARK   14  A    between atoms: C_31  and  C_32
REMARK                            x       y       z     vdW  Elec       q    Type
REMARK                         _______ _______ _______ _____ _____    ______ ____
ROOT
ATOM     20  C   UNL     1       0.190   3.332   0.117  0.00  0.00    +0.143 A 
ATOM     21  C   UNL     1       0.646   4.646   0.260  0.00  0.00    +0.093 A 
ATOM     22  C   UNL     1      -0.257   5.715   0.225  0.00  0.00    +0.129 A 
ATOM     33  C   UNL     1      -1.628   5.483   0.012  0.00  0.00    +0.010 A 
ATOM     42  C   UNL     1      -2.089   4.163  -0.073  0.00  0.00    +0.032 A 
ATOM     43  C   UNL     1      -1.187   3.099  -0.021  0.00  0.00    +0.083 A 
ATOM     44 CL   UNL     1      -1.821   1.497  -0.183  0.00  0.00    -0.080 Cl
ENDROOT
BRANCH  20  19
ATOM     19  O   UNL     1       1.003   2.231   0.094  0.00  0.00    -0.486 OA
BRANCH  19  18
ATOM     18  C   UNL     1       2.420   2.423   0.039  0.00  0.00    +0.265 C 
BRANCH  18  17
ATOM      1  C   UNL     1       5.135   1.838   1.074  0.00  0.00    +0.045 C 
ATOM      2  C   UNL     1       4.342   0.744   0.394  0.00  0.00    -0.036 A 
ATOM      3  C   UNL     1       4.827  -0.597   0.322  0.00  0.00    -0.014 A 
ATOM     14  C   UNL     1       4.150  -1.476  -0.552  0.00  0.00    +0.009 A 
ATOM     15  C   UNL     1       3.020  -1.089  -1.270  0.00  0.00    +0.001 A 
ATOM     16  C   UNL     1       2.478   0.170  -1.068  0.00  0.00    +0.007 A 
ATOM     17  C   UNL     1       3.096   1.084  -0.203  0.00  0.00    -0.007 A 
BRANCH   3   4
ATOM      4  C   UNL     1       5.964  -1.122   1.144  0.00  0.00    -0.014 A 
ATOM      5  C   UNL     1       6.822  -2.138   0.675  0.00  0.00    +0.058 A 
ATOM      6  C   UNL     1       7.861  -2.644   1.466  0.00  0.00    +0.163 A 
ATOM      7  O   UNL     1       8.600  -3.669   0.930  0.00  0.00    -0.485 OA
ATOM      8  C   UNL     1       9.799  -3.909   1.675  0.00  0.00    +0.270 C 
ATOM      9  C   UNL     1       9.547  -3.857   3.174  0.00  0.00    +0.270 C 
ATOM     10  O   UNL     1       9.092  -2.560   3.567  0.00  0.00    -0.485 OA
ATOM     11  C   UNL     1       8.090  -2.126   2.740  0.00  0.00    +0.162 A 
ATOM     12  C   UNL     1       7.267  -1.126   3.232  0.00  0.00    +0.050 A 
ATOM     13  C   UNL     1       6.193  -0.670   2.460  0.00  0.00    +0.012 A 
ENDBRANCH   3   4
ENDBRANCH  18  17
ENDBRANCH  19  18
ENDBRANCH  20  19
BRANCH  22  23
ATOM     23  O   UNL     1       0.123   7.028   0.302  0.00  0.00    -0.487 OA
BRANCH  23  24
ATOM     24  C   UNL     1       1.291   7.319   1.063  0.00  0.00    +0.264 C 
BRANCH  24  25
ATOM     25  C   UNL     1       1.157   8.744   1.544  0.00  0.00    -0.009 A 
ATOM     26  C   UNL     1       2.104   9.718   1.204  0.00  0.00    +0.007 A 
ATOM     27  C   UNL     1       1.956  11.035   1.649  0.00  0.00    +0.002 A 
ATOM     28  C   UNL     1       0.861  11.388   2.441  0.00  0.00    +0.019 A 
ATOM     29  C   UNL     1      -0.088  10.424   2.793  0.00  0.00    +0.052 A 
ATOM     32  C   UNL     1       0.064   9.107   2.346  0.00  0.00    +0.025 A 
BRANCH  29  30
ATOM     30  C   UNL     1      -1.215  10.783   3.601  0.00  0.00    +0.099 C 
ATOM     31  N   UNL     1      -2.128  11.069   4.258  0.00  0.00    -0.191 NA
ENDBRANCH  29  30
ENDBRANCH  24  25
ENDBRANCH  23  24
ENDBRANCH  22  23
BRANCH  33  34
ATOM     34  C   UNL     1      -2.602   6.624  -0.204  0.00  0.00    +0.120 C 
BRANCH  34  35
ATOM     35  N   UNL     1      -2.246   7.484  -1.342  0.00  0.00    -0.311 NA
ATOM     36  H   UNL     1      -1.293   7.813  -1.165  0.00  0.00    +0.122 HD
BRANCH  35  37
ATOM     37  C   UNL     1      -2.229   6.748  -2.617  0.00  0.00    +0.096 C 
BRANCH  37  38
ATOM     38  C   UNL     1      -1.784   7.654  -3.781  0.00  0.00    +0.092 C 
BRANCH  38  39
ATOM     39  N   UNL     1      -0.457   8.242  -3.556  0.00  0.00    -0.329 NA
ATOM     40  H   UNL     1      -0.242   8.864  -4.334  0.00  0.00    +0.118 HD
ATOM     41  H   UNL     1      -0.514   8.842  -2.734  0.00  0.00    +0.118 HD
ENDBRANCH  38  39
ENDBRANCH  37  38
ENDBRANCH  35  37
ENDBRANCH  34  35
ENDBRANCH  33  34
TORSDOF 13
