REMARK  Name = 
REMARK  15 active torsions:
REMARK  status: ('A' for Active; 'I' for Inactive)
REMARK    1  A    between atoms: C_1  and  C_2
REMARK    2  A    between atoms: C_3  and  C_4
REMARK    3  A    between atoms: C_4  and  O_5
REMARK    4  A    between atoms: O_5  and  C_6
REMARK    5  A    between atoms: C_10  and  C_11
REMARK    6  A    between atoms: C_11  and  N_12
REMARK    7  A    between atoms: N_12  and  C_13
REMARK    8  A    between atoms: C_13  and  C_14
REMARK    9  A    between atoms: C_14  and  N_15
REMARK   10  A    between atoms: C_16  and  C_17
REMARK   11  A    between atoms: C_25  and  O_26
REMARK   12  A    between atoms: O_26  and  C_27
REMARK   13  A    between atoms: C_27  and  C_28
REMARK   14  A    between atoms: C_30  and  C_31
REMARK   15  A    between atoms: C_40  and  C_41
REMARK                            x       y       z     vdW  Elec       q    Type
REMARK                         _______ _______ _______ _____ _____    ______ ____
ROOT
ATOM     20  C   UNL     1       0.177   3.366   0.125  0.00  0.00    +0.143 A 
ATOM     21  C   UNL     1       0.715   4.663   0.255  0.00  0.00    +0.093 A 
ATOM     22  C   UNL     1      -0.104   5.792   0.245  0.00  0.00    +0.129 A 
ATOM     33  C   UNL     1      -1.485   5.640   0.067  0.00  0.00    +0.010 A 
ATOM     50  C   UNL     1      -2.026   4.353  -0.042  0.00  0.00    +0.032 A 
ATOM     51  C   UNL     1      -1.210   3.218  -0.034  0.00  0.00    +0.083 A 
ATOM     52 CL   UNL     1      -2.053   1.732  -0.311  0.00  0.00    -0.080 Cl
ENDROOT
BRANCH  20  19
ATOM     19  O   UNL     1       1.162   2.413   0.139  0.00  0.00    -0.486 OA
BRANCH  19  18
ATOM     18  C   UNL     1       0.788   1.061   0.358  0.00  0.00    +0.265 C 
BRANCH  18  17
ATOM      1  C   UNL     1       1.125   0.033   3.123  0.00  0.00    +0.045 C 
ATOM      2  C   UNL     1       2.102  -0.370   2.040  0.00  0.00    -0.036 A 
ATOM      3  C   UNL     1       3.112  -1.347   2.268  0.00  0.00    -0.014 A 
ATOM     14  C   UNL     1       4.111  -1.486   1.278  0.00  0.00    +0.009 A 
ATOM     15  C   UNL     1       4.086  -0.761   0.086  0.00  0.00    +0.001 A 
ATOM     16  C   UNL     1       3.014   0.072  -0.185  0.00  0.00    +0.007 A 
ATOM     17  C   UNL     1       2.002   0.254   0.767  0.00  0.00    -0.007 A 
BRANCH   3   4
ATOM      4  C   UNL     1       3.137  -2.245   3.462  0.00  0.00    -0.014 A 
ATOM      5  C   UNL     1       4.345  -2.677   4.040  0.00  0.00    +0.058 A 
ATOM      6  C   UNL     1       4.359  -3.535   5.145  0.00  0.00    +0.163 A 
ATOM      7  O   UNL     1       5.592  -3.935   5.593  0.00  0.00    -0.485 OA
ATOM      8  C   UNL     1       5.515  -4.562   6.878  0.00  0.00    +0.270 C 
ATOM      9  C   UNL     1       4.325  -5.504   6.969  0.00  0.00    +0.270 C 
ATOM     10  O   UNL     1       3.098  -4.787   6.810  0.00  0.00    -0.485 OA
ATOM     11  C   UNL     1       3.162  -3.960   5.720  0.00  0.00    +0.162 A 
ATOM     12  C   UNL     1       1.954  -3.552   5.176  0.00  0.00    +0.050 A 
ATOM     13  C   UNL     1       1.949  -2.749   4.033  0.00  0.00    +0.012 A 
ENDBRANCH   3   4
ENDBRANCH  18  17
ENDBRANCH  19  18
ENDBRANCH  20  19
BRANCH  22  23
ATOM     23  O   UNL     1       0.344   7.083   0.266  0.00  0.00    -0.487 OA
BRANCH  23  24
ATOM     24  C   UNL     1       1.504   7.398   1.028  0.00  0.00    +0.266 C 
BRANCH  24  25
ATOM     25  C   UNL     1       2.532   7.990   0.106  0.00  0.00    +0.009 A 
ATOM     26  C   UNL     1       3.784   7.405  -0.033  0.00  0.00    +0.117 A 
ATOM     27  N   UNL     1       4.755   7.884  -0.842  0.00  0.00    -0.262 NA
ATOM     28  C   UNL     1       4.466   8.997  -1.559  0.00  0.00    +0.129 A 
ATOM     29  C   UNL     1       3.248   9.654  -1.499  0.00  0.00    +0.070 A 
ATOM     32  C   UNL     1       2.268   9.142  -0.650  0.00  0.00    +0.028 A 
BRANCH  29  30
ATOM     30  C   UNL     1       3.015  10.821  -2.295  0.00  0.00    +0.101 C 
ATOM     31  N   UNL     1       2.827  11.768  -2.942  0.00  0.00    -0.191 NA
ENDBRANCH  29  30
ENDBRANCH  24  25
ENDBRANCH  23  24
ENDBRANCH  22  23
BRANCH  33  34
ATOM     34  C   UNL     1      -2.382   6.840  -0.127  0.00  0.00    +0.120 C 
BRANCH  34  35
ATOM     35  N   UNL     1      -2.060   7.605  -1.344  0.00  0.00    -0.310 NA
ATOM     36  H   UNL     1      -1.085   7.901  -1.243  0.00  0.00    +0.122 HD
BRANCH  35  37
ATOM     37  C   UNL     1      -2.160   6.813  -2.584  0.00  0.00    +0.100 C 
BRANCH  37  38
ATOM     38  C   UNL     1      -3.588   6.333  -2.876  0.00  0.00    +0.119 C 
BRANCH  38  39
ATOM     39  N   UNL     1      -3.705   5.568  -4.104  0.00  0.00    -0.310 N 
ATOM     40  H   UNL     1      -3.974   6.073  -4.933  0.00  0.00    +0.149 HD
ATOM     41  C   UNL     1      -3.608   4.191  -4.086  0.00  0.00    +0.246 C 
ATOM     42  O   UNL     1      -3.270   3.569  -3.083  0.00  0.00    -0.270 OA
BRANCH  41  43
ATOM     43  C   UNL     1      -3.973   3.445  -5.320  0.00  0.00    +0.055 A 
ATOM     44  C   UNL     1      -3.930   2.051  -5.278  0.00  0.00    +0.127 A 
ATOM     45  N   UNL     1      -4.264   1.240  -6.314  0.00  0.00    -0.227 NA
ATOM     46  C   UNL     1      -4.663   1.849  -7.446  0.00  0.00    +0.213 A 
ATOM     47  F   UNL     1      -5.001   1.074  -8.485  0.00  0.00    -0.184 F 
ATOM     48  C   UNL     1      -4.745   3.223  -7.594  0.00  0.00    +0.060 A 
ATOM     49  C   UNL     1      -4.396   4.036  -6.513  0.00  0.00    +0.019 A 
ENDBRANCH  41  43
ENDBRANCH  38  39
ENDBRANCH  37  38
ENDBRANCH  35  37
ENDBRANCH  34  35
ENDBRANCH  33  34
TORSDOF 14
