REMARK  Name = 
REMARK  25 active torsions:
REMARK  status: ('A' for Active; 'I' for Inactive)
REMARK    1  A    between atoms: C_1  and  C_2
REMARK    2  A    between atoms: C_3  and  C_4
REMARK    3  A    between atoms: C_4  and  O_5
REMARK    4  A    between atoms: O_5  and  C_6
REMARK    5  A    between atoms: C_10  and  C_11
REMARK    6  A    between atoms: C_11  and  N_12
REMARK    7  A    between atoms: N_12  and  CA_13
REMARK    8  A    between atoms: CA_13  and  CB_14
REMARK    9  A    between atoms: CA_13  and  C_19
REMARK   10  A    between atoms: CB_14  and  CG_15
REMARK   11  A    between atoms: CG_15  and  CD_16
REMARK   12  A    between atoms: CD_16  and  CE_17
REMARK   13  A    between atoms: CE_17  and  NZ_18
REMARK   14  A    between atoms: C_19  and  O_20
REMARK   15  A    between atoms: C_22  and  O_23
REMARK   16  A    between atoms: O_23  and  C_24
REMARK   17  A    between atoms: C_24  and  C_25
REMARK   18  A    between atoms: C_27  and  C_28
REMARK   19  A    between atoms: C_37  and  C_38
REMARK   20  A    between atoms: C_42  and  O_43
REMARK   21  A    between atoms: O_43  and  C_44
REMARK   22  A    between atoms: C_44  and  C_45
REMARK   23  A    between atoms: C_45  and  C_46
REMARK   24  A    between atoms: C_46  and  N_47
REMARK   25  A    between atoms: C_50  and  O_51
REMARK                            x       y       z     vdW  Elec       q    Type
REMARK                         _______ _______ _______ _____ _____    ______ ____
ROOT
ATOM     28  C   UNL     1       0.142   3.167   0.237  0.00  0.00    +0.143 A 
ATOM     29  C   UNL     1       0.469   4.530   0.278  0.00  0.00    +0.093 A 
ATOM     30  C   UNL     1      -0.535   5.486   0.470  0.00  0.00    +0.129 A 
ATOM     41  C   UNL     1      -1.878   5.076   0.585  0.00  0.00    +0.010 A 
ATOM     57  C   UNL     1      -2.182   3.709   0.639  0.00  0.00    +0.032 A 
ATOM     58  C   UNL     1      -1.182   2.763   0.449  0.00  0.00    +0.083 A 
ATOM     59 CL   UNL     1      -1.638   1.096   0.429  0.00  0.00    -0.080 Cl
ENDROOT
BRANCH  28  27
ATOM     27  O   UNL     1       1.021   2.169  -0.075  0.00  0.00    -0.486 OA
BRANCH  27  26
ATOM     26  C   UNL     1       2.401   2.414   0.127  0.00  0.00    +0.265 C 
BRANCH  26  25
ATOM      1  C   UNL     1       3.468   1.026  -2.286  0.00  0.00    +0.045 C 
ATOM      2  C   UNL     1       3.709   0.454  -0.907  0.00  0.00    -0.036 A 
ATOM      3  C   UNL     1       4.520  -0.696  -0.709  0.00  0.00    -0.014 A 
ATOM     22  C   UNL     1       4.458  -1.317   0.562  0.00  0.00    +0.009 A 
ATOM     23  C   UNL     1       3.698  -0.803   1.609  0.00  0.00    +0.001 A 
ATOM     24  C   UNL     1       3.047   0.406   1.444  0.00  0.00    +0.007 A 
ATOM     25  C   UNL     1       3.080   1.067   0.207  0.00  0.00    -0.007 A 
BRANCH   3   4
ATOM      4  C   UNL     1       5.459  -1.244  -1.733  0.00  0.00    -0.014 A 
ATOM      5  C   UNL     1       5.743  -2.622  -1.800  0.00  0.00    +0.054 A 
ATOM      6  C   UNL     1       6.705  -3.141  -2.674  0.00  0.00    +0.121 A 
ATOM     19  C   UNL     1       7.345  -2.291  -3.571  0.00  0.00    +0.045 A 
ATOM     20  C   UNL     1       7.074  -0.929  -3.551  0.00  0.00    +0.004 A 
ATOM     21  C   UNL     1       6.174  -0.413  -2.615  0.00  0.00    +0.009 A 
BRANCH   6   7
ATOM      7  O   UNL     1       7.105  -4.449  -2.727  0.00  0.00    -0.492 OA
BRANCH   7   8
ATOM      8  C   UNL     1       6.548  -5.316  -1.735  0.00  0.00    +0.230 C 
BRANCH   8   9
ATOM      9  C   UNL     1       7.175  -6.693  -1.905  0.00  0.00    +0.056 C 
BRANCH   9  10
ATOM     10  C   UNL     1       6.597  -7.723  -0.929  0.00  0.00    +0.087 C 
BRANCH  10  11
ATOM     11  N   UNL     1       5.138  -7.902  -1.027  0.00  0.00    -0.302 NA
ATOM     12  C   UNL     1       4.617  -8.755   0.054  0.00  0.00    +0.087 C 
ATOM     13  C   UNL     1       4.972 -10.236  -0.101  0.00  0.00    +0.046 C 
ATOM     14  C   UNL     1       4.581 -10.775  -1.475  0.00  0.00    +0.117 C 
ATOM     17  C   UNL     1       5.050  -9.858  -2.603  0.00  0.00    +0.046 C 
ATOM     18  C   UNL     1       4.682  -8.398  -2.335  0.00  0.00    +0.087 C 
BRANCH  14  15
ATOM     15  O   UNL     1       3.168 -10.964  -1.547  0.00  0.00    -0.392 OA
ATOM     16  H   UNL     1       2.730 -10.105  -1.424  0.00  0.00    +0.210 HD
ENDBRANCH  14  15
ENDBRANCH  10  11
ENDBRANCH   9  10
ENDBRANCH   8   9
ENDBRANCH   7   8
ENDBRANCH   6   7
ENDBRANCH   3   4
ENDBRANCH  26  25
ENDBRANCH  27  26
ENDBRANCH  28  27
BRANCH  30  31
ATOM     31  O   UNL     1      -0.330   6.842   0.449  0.00  0.00    -0.487 OA
BRANCH  31  32
ATOM     32  C   UNL     1       0.973   7.321   0.785  0.00  0.00    +0.266 C 
BRANCH  32  33
ATOM     33  C   UNL     1       0.844   8.766   1.189  0.00  0.00    +0.009 A 
ATOM     34  C   UNL     1       1.604   9.761   0.582  0.00  0.00    +0.117 A 
ATOM     35  N   UNL     1       1.555  11.069   0.928  0.00  0.00    -0.262 NA
ATOM     36  C   UNL     1       0.706  11.410   1.928  0.00  0.00    +0.129 A 
ATOM     37  C   UNL     1      -0.098  10.504   2.593  0.00  0.00    +0.070 A 
ATOM     40  C   UNL     1      -0.023   9.160   2.218  0.00  0.00    +0.028 A 
BRANCH  37  38
ATOM     38  C   UNL     1      -0.968  10.933   3.641  0.00  0.00    +0.101 C 
ATOM     39  N   UNL     1      -1.668  11.265   4.506  0.00  0.00    -0.191 NA
ENDBRANCH  37  38
ENDBRANCH  32  33
ENDBRANCH  31  32
ENDBRANCH  30  31
BRANCH  41  42
ATOM     42  C   ACE A   0      -3.025   6.061   0.523  0.00  0.00    +0.120 C 
BRANCH  42  43
ATOM     43  N   UNL     1      -3.042   6.864  -0.715  0.00  0.00    -0.300 NA
ATOM     44  H   UNL     1      -2.170   7.413  -0.670  0.00  0.00    +0.123 HD
BRANCH  43  45
ATOM     45  CA  UNL     1      -2.951   6.061  -1.982  0.00  0.00    +0.164 C 
BRANCH  45  46
ATOM     46  C   UNL     1      -2.829   7.087  -3.130  0.00  0.00    +0.322 C 
ATOM     47  OXT UNL     1      -2.257   6.895  -4.191  0.00  0.00    -0.249 OA
BRANCH  46  48
ATOM     48  O   UNL     1      -3.443   8.258  -2.817  0.00  0.00    -0.480 OA
ATOM     49  H   UNL     1      -3.774   8.165  -1.892  0.00  0.00    +0.295 HD
ENDBRANCH  46  48
ENDBRANCH  45  46
BRANCH  45  50
ATOM     50  CB  UNL     1      -4.159   5.134  -2.234  0.00  0.00    +0.030 C 
BRANCH  50  51
ATOM     51  CG  UNL     1      -3.973   4.303  -3.513  0.00  0.00    +0.003 C 
BRANCH  51  52
ATOM     52  CD  UNL     1      -5.139   3.359  -3.814  0.00  0.00    +0.015 C 
BRANCH  52  53
ATOM     53  CE  UNL     1      -4.892   2.649  -5.150  0.00  0.00    +0.077 C 
BRANCH  53  54
ATOM     54  NZ  UNL     1      -5.979   1.736  -5.478  0.00  0.00    -0.330 NA
ATOM     55  HZ1 UNL     1      -5.768   1.278  -6.365  0.00  0.00    +0.118 HD
ATOM     56  HZ2 UNL     1      -6.025   0.993  -4.783  0.00  0.00    +0.118 HD
ENDBRANCH  53  54
ENDBRANCH  52  53
ENDBRANCH  51  52
ENDBRANCH  50  51
ENDBRANCH  45  50
ENDBRANCH  43  45
ENDBRANCH  42  43
ENDBRANCH  41  42
TORSDOF 24
