REMARK  Name = 687667
REMARK  3 active torsions:
REMARK  status: ('A' for Active; 'I' for Inactive)
REMARK    1  A    between atoms: C_13  and  C_14
REMARK    2  A    between atoms: C_17  and  O_20
REMARK    3  A    between atoms: O_20  and  C_21
REMARK                            x       y       z     vdW  Elec       q    Type
REMARK                         _______ _______ _______ _____ _____    ______ ____
ROOT
ATOM      1  C   UNL     1     -14.320   2.616   0.000  0.00  0.00    +0.000 A 
ATOM      2  C   UNL     1     -13.021   3.366   0.000  0.00  0.00    +0.004 A 
ATOM      3  C   UNL     1     -11.722   2.616   0.000  0.00  0.00    -0.037 A 
ATOM      4  C   UNL     1     -10.549   3.551   0.000  0.00  0.00    +0.036 C 
ATOM      5  C   UNL     1      -9.087   3.217   0.000  0.00  0.00    +0.009 C 
ATOM      6  C   UNL     1      -8.436   1.866   0.000  0.00  0.00    +0.039 C 
ATOM      7  C   UNL     1      -9.087   0.515   0.000  0.00  0.00    +0.000 C 
ATOM      8  C   UNL     1      -8.152  -0.658   0.000  0.00  0.00    +0.015 C 
ATOM     17  C   UNL     1     -10.549   0.181   0.000  0.00  0.00    +0.189 C 
ATOM     18  O   UNL     1     -10.883  -1.282   0.000  0.00  0.00    -0.287 OA
ATOM     19  C   UNL     1     -11.722   1.116   0.000  0.00  0.00    +0.025 A 
ATOM     20  C   UNL     1     -13.021   0.366   0.000  0.00  0.00    +0.012 A 
ATOM     21  C   UNL     1     -14.320   1.116   0.000  0.00  0.00    +0.001 A 
ENDROOT
BRANCH   8   9
ATOM      9  C   UNL     1      -6.668  -0.435   0.000  0.00  0.00    -0.024 A 
ATOM     10  C   UNL     1      -6.120   0.962   0.000  0.00  0.00    +0.011 A 
ATOM     11  C   UNL     1      -4.637   1.185   0.000  0.00  0.00    +0.046 A 
ATOM     12  C   UNL     1      -3.702   0.013   0.000  0.00  0.00    +0.120 A 
ATOM     15  C   UNL     1      -4.250  -1.384   0.000  0.00  0.00    +0.046 A 
ATOM     16  C   UNL     1      -5.733  -1.607   0.000  0.00  0.00    +0.011 A 
BRANCH  12  13
ATOM     13  O   UNL     1      -2.219   0.236   0.000  0.00  0.00    -0.495 OA
ATOM     14  C   UNL     1      -1.284  -0.937   0.000  0.00  0.00    +0.277 C 
ENDBRANCH  12  13
ENDBRANCH   8   9
TORSDOF 2