REMARK  Name = 7210
REMARK  2 active torsions:
REMARK  status: ('A' for Active; 'I' for Inactive)
REMARK    1  A    between atoms: C_3  and  O_18
REMARK    2  A    between atoms: C_8  and  O_17
REMARK                            x       y       z     vdW  Elec       q    Type
REMARK                         _______ _______ _______ _____ _____    ______ ____
ROOT
ATOM      1  O   UNL     1      -4.647  -0.750   0.000  0.00  0.00    -0.286 OA
ATOM      2  C   UNL     1      -4.647  -2.250   0.000  0.00  0.00    +0.202 C 
ATOM      3  C   UNL     1      -5.946  -3.000   0.000  0.00  0.00    +0.075 A 
ATOM      4  C   UNL     1      -7.245  -2.250   0.000  0.00  0.00    +0.128 A 
ATOM      7  C   UNL     1      -8.544  -3.000   0.000  0.00  0.00    +0.046 A 
ATOM      8  C   UNL     1      -8.544  -4.500   0.000  0.00  0.00    +0.004 A 
ATOM      9  C   UNL     1      -7.245  -5.250   0.000  0.00  0.00    +0.012 A 
ATOM     10  C   UNL     1      -5.946  -4.500   0.000  0.00  0.00    +0.037 A 
ATOM     11  C   UNL     1      -4.647  -5.250   0.000  0.00  0.00    +0.195 C 
ATOM     12  C   UNL     1      -3.348  -4.500   0.000  0.00  0.00    +0.037 A 
ATOM     13  C   UNL     1      -2.049  -5.250   0.000  0.00  0.00    +0.012 A 
ATOM     14  C   UNL     1      -0.750  -4.500   0.000  0.00  0.00    +0.004 A 
ATOM     15  C   UNL     1      -0.750  -3.000   0.000  0.00  0.00    +0.046 A 
ATOM     16  C   UNL     1      -2.049  -2.250   0.000  0.00  0.00    +0.128 A 
ATOM     19  O   UNL     1      -4.647  -6.750   0.000  0.00  0.00    -0.287 OA
ATOM     20  C   UNL     1      -3.348  -3.000   0.000  0.00  0.00    +0.075 A 
ENDROOT
BRANCH   4   5
ATOM      5  O   UNL     1      -7.245  -0.750   0.000  0.00  0.00    -0.506 OA
ATOM      6  H   UNL     1      -6.434  -0.281   0.000  0.00  0.00    +0.292 HD
ENDBRANCH   4   5
BRANCH  16  17
ATOM     17  O   UNL     1      -2.049  -0.750   0.000  0.00  0.00    -0.506 OA
ATOM     18  H   UNL     1      -1.238  -0.281   0.000  0.00  0.00    +0.292 HD
ENDBRANCH  16  17
TORSDOF 2