REMARK  Name = 703550
REMARK  15 active torsions:
REMARK  status: ('A' for Active; 'I' for Inactive)
REMARK    1  A    between atoms: C_3  and  C_7
REMARK    2  A    between atoms: C_6  and  C_36
REMARK    3  A    between atoms: N_9  and  N_10
REMARK    4  A    between atoms: C_12  and  N_13
REMARK    5  A    between atoms: C_12  and  C_21
REMARK    6  A    between atoms: N_14  and  C_15
REMARK    7  A    between atoms: C_18  and  C_38
REMARK    8  A    between atoms: C_24  and  N_27
REMARK    9  A    between atoms: C_26  and  C_37
REMARK   10  A    between atoms: N_27  and  C_28
REMARK   11  A    between atoms: N_27  and  C_29
REMARK   12  A    between atoms: C_28  and  C_33
REMARK   13  A    between atoms: C_29  and  C_30
REMARK   14  A    between atoms: C_30  and  C_31
REMARK   15  A    between atoms: C_33  and  C_34
REMARK                            x       y       z     vdW  Elec       q    Type
REMARK                         _______ _______ _______ _____ _____    ______ ____
ROOT
ATOM     10  N   UNL     1     -15.306  -6.750   0.000  0.00  0.00    +0.056 NA
ATOM     11  C   UNL     1     -14.007  -7.500   0.000  0.00  0.00    +0.421 C 
ENDROOT
BRANCH  11  12
ATOM     12  C   UNL     1     -12.708  -6.750   0.000  0.00  0.00    +0.079 A 
ATOM     13  C   UNL     1     -12.708  -5.250   0.000  0.00  0.00    -0.033 A 
ATOM     14  C   UNL     1     -14.007  -4.500   0.000  0.00  0.00    +0.044 C 
ATOM     15  C   UNL     1     -11.409  -4.500   0.000  0.00  0.00    +0.027 A 
ATOM     16  C   UNL     1     -10.110  -5.250   0.000  0.00  0.00    +0.030 A 
ATOM     26  C   UNL     1     -10.110  -6.750   0.000  0.00  0.00    +0.024 A 
ATOM     27  C   UNL     1     -11.409  -7.500   0.000  0.00  0.00    +0.018 A 
BRANCH  16  17
ATOM     17  N   UNL     1      -8.811  -4.500   0.000  0.00  0.00    -0.328 N 
BRANCH  17  18
ATOM     18  C   UNL     1      -8.811  -3.000   0.000  0.00  0.00    +0.120 C 
BRANCH  18  19
ATOM     19  C   UNL     1      -7.512  -2.250   0.000  0.00  0.00    +0.137 C 
BRANCH  19  20
ATOM     20  C   UNL     1      -6.213  -3.000   0.000  0.00  0.00    +0.064 C 
ATOM     21  N   UNL     1      -4.914  -3.750   0.000  0.00  0.00    -0.197 NA
ENDBRANCH  19  20
ENDBRANCH  18  19
ENDBRANCH  17  18
BRANCH  17  22
ATOM     22  C   UNL     1      -7.512  -5.250   0.000  0.00  0.00    +0.120 C 
BRANCH  22  23
ATOM     23  C   UNL     1      -7.512  -6.750   0.000  0.00  0.00    +0.137 C 
BRANCH  23  24
ATOM     24  C   UNL     1      -6.213  -7.500   0.000  0.00  0.00    +0.064 C 
ATOM     25  N   UNL     1      -4.914  -8.250   0.000  0.00  0.00    -0.197 NA
ENDBRANCH  23  24
ENDBRANCH  22  23
ENDBRANCH  17  22
ENDBRANCH  16  17
ENDBRANCH  11  12
BRANCH  10   8
ATOM      7  C   UNL     1     -17.904  -6.750   0.000  0.00  0.00    +0.281 C 
ATOM      8  N   UNL     1     -16.605  -7.500   0.000  0.00  0.00    -0.106 N 
ATOM      9  H   UNL     1     -16.605  -9.000   0.000  0.00  0.00    +0.205 HD
ATOM     37  O   UNL     1     -19.203  -7.500   0.000  0.00  0.00    -0.267 OA
BRANCH   7   6
ATOM      1  C   UNL     1     -19.203  -3.000   0.000  0.00  0.00    +0.004 A 
ATOM      2  C   UNL     1     -17.904  -2.250   0.000  0.00  0.00    -0.050 A 
ATOM      3  C   UNL     1     -17.904  -0.750   0.000  0.00  0.00    +0.044 C 
ATOM      4  C   UNL     1     -16.605  -3.000   0.000  0.00  0.00    +0.004 A 
ATOM      5  C   UNL     1     -16.605  -4.500   0.000  0.00  0.00    +0.013 A 
ATOM      6  C   UNL     1     -17.904  -5.250   0.000  0.00  0.00    +0.040 A 
ATOM     38  C   UNL     1     -19.203  -4.500   0.000  0.00  0.00    +0.013 A 
ENDBRANCH   7   6
ENDBRANCH  10   8
BRANCH  11  28
ATOM     28  N   UNL     1     -14.007  -9.000   0.000  0.00  0.00    +0.089 NA
ATOM     29  N   UNL     1     -12.708  -9.750   0.000  0.00  0.00    -0.035 NA
BRANCH  29  30
ATOM     30  C   UNL     1     -12.708 -11.250   0.000  0.00  0.00    +0.111 A 
ATOM     31  C   UNL     1     -11.409 -12.000   0.000  0.00  0.00    +0.032 A 
ATOM     32  C   UNL     1     -11.409 -13.500   0.000  0.00  0.00    +0.005 A 
ATOM     33  C   UNL     1     -12.708 -14.250   0.000  0.00  0.00    -0.050 A 
ATOM     34  C   UNL     1     -12.708 -15.750   0.000  0.00  0.00    +0.044 C 
ATOM     35  C   UNL     1     -14.007 -13.500   0.000  0.00  0.00    +0.005 A 
ATOM     36  C   UNL     1     -14.007 -12.000   0.000  0.00  0.00    +0.032 A 
ENDBRANCH  29  30
ENDBRANCH  11  28
TORSDOF 12