REMARK  Name = 684480
REMARK  2 active torsions:
REMARK  status: ('A' for Active; 'I' for Inactive)
REMARK    1  A    between atoms: C_8  and  C_17
REMARK    2  A    between atoms: C_10  and  C_24
REMARK                            x       y       z     vdW  Elec       q    Type
REMARK                         _______ _______ _______ _____ _____    ______ ____
ROOT
ATOM      1  C   UNL     1       0.760  -5.988   0.000  0.00  0.00    +0.043 A 
ATOM      2  C   UNL     1      -0.339  -4.968   0.000  0.00  0.00    +0.024 A 
ATOM      3  C   UNL     1      -1.773  -5.410   0.000  0.00  0.00    +0.002 A 
ATOM      4  C   UNL     1      -2.107  -6.872   0.000  0.00  0.00    +0.001 A 
ATOM      5  C   UNL     1      -1.007  -7.892   0.000  0.00  0.00    +0.012 A 
ATOM      6  N   UNL     1       2.112  -5.337   0.000  0.00  0.00    -0.285 N 
ATOM      7  H   UNL     1       2.112  -4.353   0.000  0.00  0.00    +0.155 HD
ATOM      8  C   UNL     1       3.463  -5.988   0.000  0.00  0.00    +0.222 C 
ATOM      9  O   UNL     1       4.636  -5.053   0.000  0.00  0.00    -0.275 OA
ATOM     10  C   UNL     1       3.797  -7.450   0.000  0.00  0.00    +0.134 C 
ATOM     11  C   UNL     1       2.862  -8.623   0.000  0.00  0.00    -0.005 A 
ATOM     12  C   UNL     1       3.612  -9.922   0.000  0.00  0.00    -0.010 A 
ATOM     19  C   UNL     1       2.862 -11.221   0.000  0.00  0.00    +0.037 A 
ATOM     20  C   UNL     1       1.362 -11.221   0.000  0.00  0.00    +0.072 A 
ATOM     28  N   UNL     1       0.612  -9.922   0.000  0.00  0.00    -0.246 NA
ATOM     29  C   UNL     1       1.362  -8.623   0.000  0.00  0.00    +0.078 A 
ATOM     30  C   UNL     1       0.426  -7.450   0.000  0.00  0.00    +0.022 A 
ENDROOT
BRANCH  20  21
ATOM     21  C   UNL     1       0.612 -12.520   0.000  0.00  0.00    +0.002 A 
ATOM     22  C   UNL     1       1.362 -13.819   0.000  0.00  0.00    +0.030 A 
ATOM     23  C   UNL     1       0.612 -15.118   0.000  0.00  0.00    +0.042 A 
ATOM     24 CL   UNL     1       1.362 -16.417   0.000  0.00  0.00    -0.084 Cl
ATOM     25  C   UNL     1      -0.888 -15.118   0.000  0.00  0.00    +0.020 A 
ATOM     26  C   UNL     1      -1.638 -13.819   0.000  0.00  0.00    +0.002 A 
ATOM     27  C   UNL     1      -0.888 -12.520   0.000  0.00  0.00    +0.010 A 
ENDBRANCH  20  21
BRANCH  12  13
ATOM     13  C   UNL     1       5.112  -9.922   0.000  0.00  0.00    -0.017 A 
ATOM     14  C   UNL     1       5.862 -11.221   0.000  0.00  0.00    +0.008 A 
ATOM     15  C   UNL     1       7.362 -11.221   0.000  0.00  0.00    +0.001 A 
ATOM     16  C   UNL     1       8.112  -9.922   0.000  0.00  0.00    +0.000 A 
ATOM     17  C   UNL     1       7.362  -8.623   0.000  0.00  0.00    +0.001 A 
ATOM     18  C   UNL     1       5.862  -8.623   0.000  0.00  0.00    +0.008 A 
ENDBRANCH  12  13
TORSDOF 2