REMARK  Name = 699479
REMARK  7 active torsions:
REMARK  status: ('A' for Active; 'I' for Inactive)
REMARK    1  A    between atoms: N_10  and  C_20
REMARK    2  A    between atoms: C_11  and  C_32
REMARK    3  A    between atoms: C_13  and  C_14
REMARK    4  A    between atoms: C_17  and  N_29
REMARK    5  A    between atoms: S_21  and  C_25
REMARK    6  A    between atoms: N_29  and  C_30
REMARK    7  A    between atoms: N_29  and  C_31
REMARK                            x       y       z     vdW  Elec       q    Type
REMARK                         _______ _______ _______ _____ _____    ______ ____
ROOT
ATOM      1  S   UNL     1       3.750   2.250   0.000  0.00  0.00    +0.013 S 
ATOM      6  O   UNL     1       5.250   2.250   0.000  0.00  0.00    -0.718 OA
ATOM      7  O   UNL     1       3.750   0.750   0.000  0.00  0.00    -0.177 OA
ATOM      8  O   UNL     1       3.750   3.750   0.000  0.00  0.00    -0.177 OA
ENDROOT
BRANCH   1   2
ATOM      2  C   UNL     1       2.250   2.250   0.000  0.00  0.00    +0.512 C 
ATOM      3  F   UNL     1       2.250   0.750   0.000  0.00  0.00    -0.151 F 
ATOM      4  F   UNL     1       0.750   2.250   0.000  0.00  0.00    -0.151 F 
ATOM      5  F   UNL     1       2.250   3.750   0.000  0.00  0.00    -0.151 F 
ENDBRANCH   1   2
TORSDOF 1