REMARK  Name = 676963
REMARK  14 active torsions:
REMARK  status: ('A' for Active; 'I' for Inactive)
REMARK    1  A    between atoms: N_7  and  C_24
REMARK    2  A    between atoms: C_13  and  N_15
REMARK    3  A    between atoms: N_20  and  C_27
REMARK    4  A    between atoms: N_23  and  C_28
REMARK    5  A    between atoms: C_24  and  C_25
REMARK    6  A    between atoms: C_25  and  C_26
REMARK    7  A    between atoms: C_26  and  C_27
REMARK    8  A    between atoms: C_28  and  C_29
REMARK    9  A    between atoms: C_33  and  C_35
REMARK   10  A    between atoms: C_35  and  C_37
REMARK   11  A    between atoms: C_43  and  C_45
REMARK   12  A    between atoms: C_44  and  C_48
REMARK   13  A    between atoms: C_45  and  O_46
REMARK   14  A    between atoms: C_48  and  O_49
REMARK                            x       y       z     vdW  Elec       q    Type
REMARK                         _______ _______ _______ _____ _____    ______ ____
ROOT
ATOM      1  C   UNL     1      16.494   5.214   0.000  0.00  0.00    +0.098 C 
ATOM      6  C   UNL     1      17.794   4.465   0.000  0.00  0.00    +0.098 C 
ENDROOT
BRANCH   1   2
ATOM      2  C   UNL     1      16.493   6.714   0.000  0.00  0.00    +0.330 C 
ATOM      3  O   UNL     1      15.193   7.463   0.000  0.00  0.00    -0.246 OA
BRANCH   2   4
ATOM      4  O   UNL     1      17.791   7.465   0.000  0.00  0.00    -0.478 OA
ATOM      5  H   UNL     1      18.603   6.998   0.000  0.00  0.00    +0.295 HD
ENDBRANCH   2   4
ENDBRANCH   1   2
BRANCH   6   7
ATOM      7  C   UNL     1      19.092   5.217   0.000  0.00  0.00    +0.330 C 
ATOM      8  O   UNL     1      20.392   4.468   0.000  0.00  0.00    -0.246 OA
BRANCH   7   9
ATOM      9  O   UNL     1      19.091   6.717   0.000  0.00  0.00    -0.478 OA
ATOM     10  H   UNL     1      19.902   7.186   0.000  0.00  0.00    +0.295 HD
ENDBRANCH   7   9
ENDBRANCH   6   7
TORSDOF 4