REMARK  Name = 68093
REMARK  0 active torsions:
REMARK  status: ('A' for Active; 'I' for Inactive)
REMARK                            x       y       z     vdW  Elec       q    Type
REMARK                         _______ _______ _______ _____ _____    ______ ____
ROOT
ATOM      1 ZN   UNL     1      -5.656  -2.250   0.000  0.00  0.00    +0.000 Zn
ATOM      2  S   UNL     1      -4.775  -3.463   0.000  0.00  0.00    +0.000 S 
ATOM      3  C   UNL     1      -3.348  -3.000   0.000  0.00  0.00    +0.000 A 
ATOM      4  N   UNL     1      -3.348  -1.500   0.000  0.00  0.00    +0.000 N 
ATOM      5  C   UNL     1      -2.049  -0.750   0.000  0.00  0.00    +0.000 A 
ATOM      6  C   UNL     1      -0.750  -1.500   0.000  0.00  0.00    +0.000 A 
ATOM      7  C   UNL     1      -0.750  -3.000   0.000  0.00  0.00    +0.000 A 
ATOM      8  C   UNL     1      -2.049  -3.750   0.000  0.00  0.00    +0.000 A 
ATOM      9  S   UNL     1      -6.538  -3.463   0.000  0.00  0.00    +0.000 S 
ATOM     10  C   UNL     1      -7.965  -3.000   0.000  0.00  0.00    +0.000 A 
ATOM     11  N   UNL     1      -7.965  -1.500   0.000  0.00  0.00    +0.000 N 
ATOM     12  C   UNL     1      -9.264  -0.750   0.000  0.00  0.00    +0.000 A 
ATOM     13  C   UNL     1     -10.563  -1.500   0.000  0.00  0.00    +0.000 A 
ATOM     14  C   UNL     1     -10.563  -3.000   0.000  0.00  0.00    +0.000 A 
ATOM     15  C   UNL     1      -9.264  -3.750   0.000  0.00  0.00    +0.000 A 
ATOM     16  O   UNL     1      -6.538  -1.037   0.000  0.00  0.00    +0.000 OA
ATOM     17  O   UNL     1      -4.775  -1.037   0.000  0.00  0.00    +0.000 OA
ENDROOT
TORSDOF 0