REMARK  Name = 690634
REMARK  8 active torsions:
REMARK  status: ('A' for Active; 'I' for Inactive)
REMARK    1  A    between atoms: C_6  and  N_29
REMARK    2  A    between atoms: C_14  and  N_31
REMARK    3  A    between atoms: C_20  and  N_30
REMARK    4  A    between atoms: C_28  and  N_34
REMARK    5  A    between atoms: N_29  and  C_37
REMARK    6  A    between atoms: N_30  and  C_39
REMARK    7  A    between atoms: C_37  and  C_38
REMARK    8  A    between atoms: C_38  and  C_39
REMARK                            x       y       z     vdW  Elec       q    Type
REMARK                         _______ _______ _______ _____ _____    ______ ____
ROOT
ATOM     10  C   UNL     1      -0.678   0.283   0.000  0.00  0.00    +0.037 C 
ENDROOT
BRANCH  10   9
ATOM      9  C   UNL     1      -0.475   1.769   0.000  0.00  0.00    +0.103 C 
BRANCH   9   7
ATOM      7  N   UNL     1      -1.802   2.468   0.000  0.00  0.00    -0.343 N 
ATOM      8  H   UNL     1      -1.925   3.445   0.000  0.00  0.00    +0.146 HD
BRANCH   7   6
ATOM      1  C   UNL     1      -2.596  -0.006   0.000  0.00  0.00    +0.022 A 
ATOM      2  C   UNL     1      -1.167  -0.464   0.000  0.00  0.00    +0.012 A 
ATOM      3  C   UNL     1      -0.850  -1.930   0.000  0.00  0.00    +0.001 A 
ATOM      4  C   UNL     1      -1.961  -2.938   0.000  0.00  0.00    +0.002 A 
ATOM      5  C   UNL     1      -3.389  -2.479   0.000  0.00  0.00    +0.028 A 
ATOM      6  C   UNL     1      -2.913   1.460   0.000  0.00  0.00    +0.052 A 
ATOM     31  C   UNL     1      -4.341   1.919   0.000  0.00  0.00    +0.099 A 
ATOM     32  C   UNL     1      -4.659   3.385   0.000  0.00  0.00    +0.284 A 
ATOM     36  C   UNL     1      -6.087   3.843   0.000  0.00  0.00    +0.085 A 
ATOM     37  C   UNL     1      -7.198   2.835   0.000  0.00  0.00    +0.009 A 
ATOM     38  C   UNL     1      -6.880   1.369   0.000  0.00  0.00    +0.029 A 
ATOM     39  C   UNL     1      -5.452   0.911   0.000  0.00  0.00    +0.080 A 
ATOM     40  N   UNL     1      -5.135  -0.555   0.000  0.00  0.00    -0.246 NA
ATOM     41  C   UNL     1      -3.707  -1.014   0.000  0.00  0.00    +0.073 A 
BRANCH  32  33
ATOM     33  N   UNL     1      -3.547   4.393   0.000  0.00  0.00    +0.080 N 
ATOM     34  O   UNL     1      -3.865   5.859   0.000  0.00  0.00    +0.041 OA
ATOM     35  O   UNL     1      -2.119   3.934   0.000  0.00  0.00    -0.576 OA
ENDBRANCH  32  33
ENDBRANCH   7   6
ENDBRANCH   9   7
ENDBRANCH  10   9
BRANCH  10  11
ATOM     11  C   UNL     1       0.507  -0.636   0.000  0.00  0.00    +0.103 C 
BRANCH  11  12
ATOM     12  N   UNL     1       1.776   0.163   0.000  0.00  0.00    -0.343 N 
ATOM     13  H   UNL     1       1.738   1.147   0.000  0.00  0.00    +0.146 HD
BRANCH  12  14
ATOM     14  C   UNL     1       3.103  -0.536   0.000  0.00  0.00    +0.052 A 
ATOM     15  C   UNL     1       4.373   0.264   0.000  0.00  0.00    +0.099 A 
ATOM     16  C   UNL     1       4.315   1.762   0.000  0.00  0.00    +0.284 A 
ATOM     20  C   UNL     1       5.584   2.562   0.000  0.00  0.00    +0.085 A 
ATOM     21  C   UNL     1       6.911   1.863   0.000  0.00  0.00    +0.009 A 
ATOM     22  C   UNL     1       6.969   0.364   0.000  0.00  0.00    +0.029 A 
ATOM     23  C   UNL     1       5.700  -0.436   0.000  0.00  0.00    +0.080 A 
ATOM     24  N   UNL     1       5.758  -1.935   0.000  0.00  0.00    -0.246 NA
ATOM     25  C   UNL     1       4.488  -2.734   0.000  0.00  0.00    +0.073 A 
ATOM     26  C   UNL     1       4.546  -4.233   0.000  0.00  0.00    +0.028 A 
ATOM     27  C   UNL     1       3.277  -5.033   0.000  0.00  0.00    +0.002 A 
ATOM     28  C   UNL     1       1.950  -4.333   0.000  0.00  0.00    +0.001 A 
ATOM     29  C   UNL     1       1.892  -2.834   0.000  0.00  0.00    +0.012 A 
ATOM     30  C   UNL     1       3.161  -2.035   0.000  0.00  0.00    +0.022 A 
BRANCH  16  17
ATOM     17  N   UNL     1       2.988   2.462   0.000  0.00  0.00    +0.080 N 
ATOM     18  O   UNL     1       2.930   3.961   0.000  0.00  0.00    +0.041 OA
ATOM     19  O   UNL     1       1.718   1.662   0.000  0.00  0.00    -0.576 OA
ENDBRANCH  16  17
ENDBRANCH  12  14
ENDBRANCH  11  12
ENDBRANCH  10  11
TORSDOF 8