REMARK  Name = 700582
REMARK  16 active torsions:
REMARK  status: ('A' for Active; 'I' for Inactive)
REMARK    1  A    between atoms: N_7  and  C_14
REMARK    2  A    between atoms: N_9  and  C_10
REMARK    3  A    between atoms: C_10  and  C_11
REMARK    4  A    between atoms: C_11  and  C_12
REMARK    5  A    between atoms: C_12  and  C_17
REMARK    6  A    between atoms: C_14  and  C_15
REMARK    7  A    between atoms: C_15  and  C_16
REMARK    8  A    between atoms: C_16  and  C_18
REMARK    9  A    between atoms: N_21  and  C_28
REMARK   10  A    between atoms: N_23  and  C_24
REMARK   11  A    between atoms: C_24  and  C_25
REMARK   12  A    between atoms: C_25  and  C_26
REMARK   13  A    between atoms: C_26  and  C_31
REMARK   14  A    between atoms: C_28  and  C_29
REMARK   15  A    between atoms: C_29  and  C_30
REMARK   16  A    between atoms: C_30  and  C_32
REMARK                            x       y       z     vdW  Elec       q    Type
REMARK                         _______ _______ _______ _____ _____    ______ ____
ROOT
ATOM      1  S   UNL     1      -9.836  -0.750   0.000  0.00  0.00    -0.006 S 
ATOM      2  S   UNL     1      -8.336  -0.750   0.000  0.00  0.00    -0.006 S 
ATOM      3  S   UNL     1      -7.276  -1.811   0.000  0.00  0.00    -0.025 S 
ATOM      4  C   UNL     1      -7.276  -3.311   0.000  0.00  0.00    +0.115 A 
ATOM      5  N   UNL     1      -5.939  -3.992   0.000  0.00  0.00    -0.313 N 
ATOM     10  C   UNL     1      -6.174  -5.473   0.000  0.00  0.00    +0.162 A 
ATOM     11  S   UNL     1      -5.113  -6.534   0.000  0.00  0.00    -0.013 S 
ATOM     12  N   UNL     1      -7.655  -5.708   0.000  0.00  0.00    -0.317 N 
ATOM     17  C   UNL     1      -8.336  -4.371   0.000  0.00  0.00    +0.101 A 
ATOM     18  C   UNL     1      -9.836  -4.371   0.000  0.00  0.00    +0.101 A 
ATOM     19  N   UNL     1     -10.517  -5.708   0.000  0.00  0.00    -0.317 N 
ATOM     24  C   UNL     1     -11.999  -5.473   0.000  0.00  0.00    +0.162 A 
ATOM     25  S   UNL     1     -13.059  -6.534   0.000  0.00  0.00    -0.013 S 
ATOM     26  N   UNL     1     -12.233  -3.992   0.000  0.00  0.00    -0.313 N 
ATOM     31  C   UNL     1     -10.897  -3.311   0.000  0.00  0.00    +0.115 A 
ATOM     32  S   UNL     1     -10.897  -1.811   0.000  0.00  0.00    -0.025 S 
ENDROOT
BRANCH   5   6
ATOM      6  C   UNL     1      -4.603  -3.311   0.000  0.00  0.00    +0.125 C 
BRANCH   6   7
ATOM      7  C   UNL     1      -3.345  -4.128   0.000  0.00  0.00    +0.021 C 
BRANCH   7   8
ATOM      8  C   UNL     1      -2.008  -3.447   0.000  0.00  0.00    -0.002 C 
ATOM      9  C   UNL     1      -0.750  -4.264   0.000  0.00  0.00    +0.004 C 
ENDBRANCH   7   8
ENDBRANCH   6   7
ENDBRANCH   5   6
BRANCH  12  13
ATOM     13  C   UNL     1      -8.336  -7.044   0.000  0.00  0.00    +0.124 C 
BRANCH  13  14
ATOM     14  C   UNL     1      -7.519  -8.302   0.000  0.00  0.00    +0.021 C 
BRANCH  14  15
ATOM     15  C   UNL     1      -6.021  -8.224   0.000  0.00  0.00    -0.002 C 
ATOM     16  C   UNL     1      -5.204  -9.482   0.000  0.00  0.00    +0.004 C 
ENDBRANCH  14  15
ENDBRANCH  13  14
ENDBRANCH  12  13
BRANCH  19  20
ATOM     20  C   UNL     1      -9.836  -7.044   0.000  0.00  0.00    +0.124 C 
BRANCH  20  21
ATOM     21  C   UNL     1     -10.653  -8.302   0.000  0.00  0.00    +0.021 C 
BRANCH  21  22
ATOM     22  C   UNL     1     -12.151  -8.224   0.000  0.00  0.00    -0.002 C 
ATOM     23  C   UNL     1     -12.968  -9.482   0.000  0.00  0.00    +0.004 C 
ENDBRANCH  21  22
ENDBRANCH  20  21
ENDBRANCH  19  20
BRANCH  26  27
ATOM     27  C   UNL     1     -13.570  -3.311   0.000  0.00  0.00    +0.125 C 
BRANCH  27  28
ATOM     28  C   UNL     1     -14.828  -4.128   0.000  0.00  0.00    +0.021 C 
BRANCH  28  29
ATOM     29  C   UNL     1     -16.164  -3.447   0.000  0.00  0.00    -0.002 C 
ATOM     30  C   UNL     1     -17.422  -4.264   0.000  0.00  0.00    +0.004 C 
ENDBRANCH  28  29
ENDBRANCH  27  28
ENDBRANCH  26  27
TORSDOF 12