REMARK  Name = 688795
REMARK  5 active torsions:
REMARK  status: ('A' for Active; 'I' for Inactive)
REMARK    1  A    between atoms: C_1  and  O_13
REMARK    2  A    between atoms: C_3  and  O_15
REMARK    3  A    between atoms: C_7  and  C_12
REMARK    4  A    between atoms: O_13  and  C_14
REMARK    5  A    between atoms: O_15  and  C_16
REMARK                            x       y       z     vdW  Elec       q    Type
REMARK                         _______ _______ _______ _____ _____    ______ ____
ROOT
ATOM      1  C   UNL     1       3.348   5.250   0.000  0.00  0.00    +0.127 A 
ATOM      4  C   UNL     1       4.647   6.000   0.000  0.00  0.00    +0.092 A 
ATOM      5  C   UNL     1       5.946   5.250   0.000  0.00  0.00    +0.146 A 
ATOM      6  O   UNL     1       7.245   6.000   0.000  0.00  0.00    -0.422 OA
ATOM      7  C   UNL     1       8.544   5.250   0.000  0.00  0.00    +0.337 A 
ATOM      8  O   UNL     1       9.843   6.000   0.000  0.00  0.00    -0.245 OA
ATOM      9  C   UNL     1       8.544   3.750   0.000  0.00  0.00    +0.096 A 
ATOM     10  C   UNL     1       7.245   3.000   0.000  0.00  0.00    -0.030 A 
ATOM     11  C   UNL     1       7.245   1.500   0.000  0.00  0.00    +0.045 C 
ATOM     12  C   UNL     1       5.946   3.750   0.000  0.00  0.00    +0.062 A 
ATOM     13  C   UNL     1       4.647   3.000   0.000  0.00  0.00    +0.134 A 
ATOM     16  C   UNL     1       3.348   3.750   0.000  0.00  0.00    +0.092 A 
ENDROOT
BRANCH   1   2
ATOM      2  O   UNL     1       2.049   6.000   0.000  0.00  0.00    -0.495 OA
ATOM      3  C   UNL     1       0.750   5.250   0.000  0.00  0.00    +0.277 C 
ENDBRANCH   1   2
BRANCH  13  14
ATOM     14  O   UNL     1       4.647   1.500   0.000  0.00  0.00    -0.494 OA
ATOM     15  C   UNL     1       3.348   0.750   0.000  0.00  0.00    +0.277 C 
ENDBRANCH  13  14
TORSDOF 2