REMARK  Name = 693632
REMARK  3 active torsions:
REMARK  status: ('A' for Active; 'I' for Inactive)
REMARK    1  A    between atoms: C_4  and  C_7
REMARK    2  A    between atoms: C_7  and  C_10
REMARK    3  A    between atoms: N_8  and  N_9
REMARK                            x       y       z     vdW  Elec       q    Type
REMARK                         _______ _______ _______ _____ _____    ______ ____
ROOT
ATOM      8  N   UNL     1       7.240   2.266   0.000  0.00  0.00    -0.215 N 
ATOM      9  H   UNL     1       7.242   1.282   0.000  0.00  0.00    +0.176 HD
ATOM     10  C   UNL     1       8.538   3.019   0.000  0.00  0.00    +0.179 A 
ATOM     11  N   UNL     1       8.691   4.511   0.000  0.00  0.00    -0.224 NA
ATOM     12  C   UNL     1      10.158   4.826   0.000  0.00  0.00    +0.080 A 
ATOM     13  C   UNL     1      10.905   6.127   0.000  0.00  0.00    +0.029 A 
ATOM     14  C   UNL     1      12.405   6.130   0.000  0.00  0.00    +0.002 A 
ATOM     15  C   UNL     1      13.158   4.833   0.000  0.00  0.00    +0.001 A 
ATOM     16  C   UNL     1      12.411   3.532   0.000  0.00  0.00    +0.017 A 
ATOM     17  C   UNL     1      10.911   3.529   0.000  0.00  0.00    +0.041 A 
ATOM     18  S   UNL     1       9.909   2.412   0.000  0.00  0.00    -0.051 S 
ENDROOT
BRANCH   8   7
ATOM      5  C   UNL     1       4.642   2.260   0.000  0.00  0.00    +0.082 C 
ATOM      6  C   UNL     1       4.646   0.760   0.000  0.00  0.00    +0.069 C 
ATOM      7  N   UNL     1       5.939   3.013   0.000  0.00  0.00    -0.184 NA
BRANCH   5   4
ATOM      1  N   UNL     1       0.740   4.502   0.000  0.00  0.00    -0.244 NA
ATOM      2  C   UNL     1       2.037   5.255   0.000  0.00  0.00    +0.114 A 
ATOM      3  C   UNL     1       3.338   4.507   0.000  0.00  0.00    +0.049 A 
ATOM      4  C   UNL     1       3.341   3.007   0.000  0.00  0.00    +0.089 A 
ATOM     19  N   UNL     1       2.044   2.255   0.000  0.00  0.00    -0.234 NA
ATOM     20  C   UNL     1       0.743   3.002   0.000  0.00  0.00    +0.221 A 
ENDBRANCH   5   4
ENDBRANCH   8   7
TORSDOF 2