REMARK  Name = 681730
REMARK  10 active torsions:
REMARK  status: ('A' for Active; 'I' for Inactive)
REMARK    1  A    between atoms: C_4  and  C_7
REMARK    2  A    between atoms: C_7  and  C_23
REMARK    3  A    between atoms: C_7  and  N_27
REMARK    4  A    between atoms: C_8  and  C_9
REMARK    5  A    between atoms: C_8  and  N_27
REMARK    6  A    between atoms: C_11  and  C_15
REMARK    7  A    between atoms: C_15  and  N_28
REMARK    8  A    between atoms: C_16  and  C_17
REMARK    9  A    between atoms: C_16  and  C_25
REMARK   10  A    between atoms: C_16  and  N_28
REMARK                            x       y       z     vdW  Elec       q    Type
REMARK                         _______ _______ _______ _____ _____    ______ ____
ROOT
ATOM      9  C   UNL     1     -11.142  -3.000   0.000  0.00  0.00    -0.033 A 
ATOM     10  C   UNL     1     -11.142  -1.500   0.000  0.00  0.00    +0.005 A 
ATOM     11  C   UNL     1      -9.843  -0.750   0.000  0.00  0.00    +0.001 A 
ATOM     12  C   UNL     1      -8.544  -1.500   0.000  0.00  0.00    +0.005 A 
ATOM     13  C   UNL     1      -8.544  -3.000   0.000  0.00  0.00    -0.033 A 
ATOM     26  C   UNL     1      -9.843  -3.750   0.000  0.00  0.00    +0.009 A 
ENDROOT
BRANCH   9   8
ATOM      8  C   UNL     1     -12.441  -3.750   0.000  0.00  0.00    +0.117 C 
BRANCH   8   6
ATOM      6  N   UNL     1     -13.740  -3.000   0.000  0.00  0.00    -0.294 NA
ATOM      7  H   UNL     1     -13.740  -1.980   0.000  0.00  0.00    +0.124 HD
BRANCH   6   5
ATOM      5  C   UNL     1     -15.039  -3.750   0.000  0.00  0.00    +0.188 C 
BRANCH   5   4
ATOM      1  C   UNL     1     -18.936  -1.500   0.000  0.00  0.00    +0.000 A 
ATOM      2  C   UNL     1     -17.637  -0.750   0.000  0.00  0.00    +0.000 A 
ATOM      3  C   UNL     1     -16.339  -1.500   0.000  0.00  0.00    +0.006 A 
ATOM      4  C   UNL     1     -16.339  -3.000   0.000  0.00  0.00    -0.017 A 
ATOM     29  C   UNL     1     -17.637  -3.750   0.000  0.00  0.00    +0.006 A 
ATOM     30  C   UNL     1     -18.936  -3.000   0.000  0.00  0.00    +0.000 A 
ENDBRANCH   5   4
BRANCH   5  27
ATOM     27  C   UNL     1     -15.039  -5.250   0.000  0.00  0.00    +0.086 C 
ATOM     28  N   UNL     1     -15.039  -6.750   0.000  0.00  0.00    -0.195 NA
ENDBRANCH   5  27
ENDBRANCH   6   5
ENDBRANCH   8   6
ENDBRANCH   9   8
BRANCH  13  14
ATOM     14  C   UNL     1      -7.245  -3.750   0.000  0.00  0.00    +0.117 C 
BRANCH  14  15
ATOM     15  N   UNL     1      -5.946  -3.000   0.000  0.00  0.00    -0.294 NA
ATOM     16  H   UNL     1      -5.946  -1.980   0.000  0.00  0.00    +0.124 HD
BRANCH  15  17
ATOM     17  C   UNL     1      -4.647  -3.750   0.000  0.00  0.00    +0.188 C 
BRANCH  17  20
ATOM     20  C   UNL     1      -3.348  -3.000   0.000  0.00  0.00    -0.017 A 
ATOM     21  C   UNL     1      -3.348  -1.500   0.000  0.00  0.00    +0.006 A 
ATOM     22  C   UNL     1      -2.049  -0.750   0.000  0.00  0.00    +0.000 A 
ATOM     23  C   UNL     1      -0.750  -1.500   0.000  0.00  0.00    +0.000 A 
ATOM     24  C   UNL     1      -0.750  -3.000   0.000  0.00  0.00    +0.000 A 
ATOM     25  C   UNL     1      -2.049  -3.750   0.000  0.00  0.00    +0.006 A 
ENDBRANCH  17  20
BRANCH  17  18
ATOM     18  C   UNL     1      -4.647  -5.250   0.000  0.00  0.00    +0.086 C 
ATOM     19  N   UNL     1      -4.647  -6.750   0.000  0.00  0.00    -0.195 NA
ENDBRANCH  17  18
ENDBRANCH  15  17
ENDBRANCH  14  15
ENDBRANCH  13  14
TORSDOF 10