REMARK  Name = 69187
REMARK  4 active torsions:
REMARK  status: ('A' for Active; 'I' for Inactive)
REMARK    1  A    between atoms: C_4  and  C_19
REMARK    2  A    between atoms: C_11  and  C_20
REMARK    3  A    between atoms: C_16  and  O_21
REMARK    4  A    between atoms: O_21  and  C_22
REMARK                            x       y       z     vdW  Elec       q    Type
REMARK                         _______ _______ _______ _____ _____    ______ ____
ROOT
ATOM      1  N   UNL     1     -13.907  -0.318   0.000  0.00  0.00    -0.263 NA
ATOM      2  C   UNL     1     -13.907   1.182   0.000  0.00  0.00    +0.111 A 
ATOM      3  C   UNL     1     -12.608   1.932   0.000  0.00  0.00    +0.028 A 
ATOM      4  C   UNL     1     -11.309   1.182   0.000  0.00  0.00    -0.010 A 
ATOM      5  C   UNL     1     -11.309  -0.318   0.000  0.00  0.00    +0.004 A 
ATOM      6  C   UNL     1     -10.010  -1.068   0.000  0.00  0.00    -0.032 A 
ATOM      7  C   UNL     1     -10.010  -2.568   0.000  0.00  0.00    +0.045 C 
ATOM      8  C   UNL     1      -8.711  -0.318   0.000  0.00  0.00    +0.011 A 
ATOM      9  C   UNL     1      -7.284  -0.782   0.000  0.00  0.00    +0.011 A 
ATOM     10  C   UNL     1      -6.674  -2.152   0.000  0.00  0.00    +0.056 A 
ATOM     11  C   UNL     1      -5.183  -2.309   0.000  0.00  0.00    +0.121 A 
ATOM     14  C   UNL     1      -4.301  -1.095   0.000  0.00  0.00    +0.047 A 
ATOM     15  C   UNL     1      -4.911   0.275   0.000  0.00  0.00    +0.030 A 
ATOM     16  C   UNL     1      -6.403   0.432   0.000  0.00  0.00    +0.048 A 
ATOM     17  N   UNL     1      -7.284   1.645   0.000  0.00  0.00    -0.354 N 
ATOM     18  H   UNL     1      -6.821   3.072   0.000  0.00  0.00    +0.166 HD
ATOM     19  C   UNL     1      -8.711   1.182   0.000  0.00  0.00    +0.051 A 
ATOM     20  C   UNL     1     -10.010   1.932   0.000  0.00  0.00    -0.019 A 
ATOM     21  C   UNL     1     -10.010   3.432   0.000  0.00  0.00    +0.046 C 
ATOM     22  C   UNL     1     -12.608  -1.068   0.000  0.00  0.00    +0.119 A 
ENDROOT
BRANCH  11  12
ATOM     12  O   UNL     1      -4.572  -3.679   0.000  0.00  0.00    -0.495 OA
ATOM     13  C   UNL     1      -3.081  -3.836   0.000  0.00  0.00    +0.277 C 
ENDBRANCH  11  12
TORSDOF 1