REMARK  Name = 693053
REMARK  6 active torsions:
REMARK  status: ('A' for Active; 'I' for Inactive)
REMARK    1  A    between atoms: C_2  and  C_12
REMARK    2  A    between atoms: C_3  and  C_6
REMARK    3  A    between atoms: C_9  and  C_11
REMARK    4  A    between atoms: C_12  and  O_14
REMARK    5  A    between atoms: O_14  and  C_15
REMARK    6  A    between atoms: C_15  and  C_16
REMARK                            x       y       z     vdW  Elec       q    Type
REMARK                         _______ _______ _______ _____ _____    ______ ____
ROOT
ATOM      1  C   UNL     1      -6.577  -3.044   0.000  0.00  0.00    +0.035 A 
ATOM      2  C   UNL     1      -5.077  -3.038   0.000  0.00  0.00    +0.031 A 
ATOM      3  C   UNL     1      -4.608  -4.463   0.000  0.00  0.00    +0.085 A 
ATOM      4  N   UNL     1      -5.818  -5.349   0.000  0.00  0.00    -0.347 N 
ATOM      5  H   UNL     1      -5.814  -6.334   0.000  0.00  0.00    +0.166 HD
ATOM     12  C   UNL     1      -7.035  -4.472   0.000  0.00  0.00    +0.125 A 
ENDROOT
BRANCH   3   6
ATOM      6  C   UNL     1      -3.179  -4.921   0.000  0.00  0.00    +0.184 A 
ATOM      7  O   UNL     1      -2.711  -6.346   0.000  0.00  0.00    -0.353 OA
ATOM      8  N   UNL     1      -1.210  -6.340   0.000  0.00  0.00    -0.083 NA
ATOM      9  C   UNL     1      -0.752  -4.912   0.000  0.00  0.00    +0.081 A 
ATOM     10  C   UNL     1       0.672  -4.443   0.000  0.00  0.00    +0.069 C 
ATOM     11  C   UNL     1      -1.969  -4.035   0.000  0.00  0.00    +0.077 A 
ENDBRANCH   3   6
BRANCH  12  13
ATOM     13  C   UNL     1      -8.460  -4.941   0.000  0.00  0.00    +0.356 C 
ATOM     17  O   UNL     1      -9.578  -3.941   0.000  0.00  0.00    -0.243 OA
BRANCH  13  14
ATOM     14  O   UNL     1      -8.766  -6.409   0.000  0.00  0.00    -0.460 OA
BRANCH  14  15
ATOM     15  C   UNL     1     -10.191  -6.878   0.000  0.00  0.00    +0.229 C 
ATOM     16  C   UNL     1     -11.309  -5.879   0.000  0.00  0.00    +0.048 C 
ENDBRANCH  14  15
ENDBRANCH  13  14
ENDBRANCH  12  13
TORSDOF 4