REMARK  Name = 681741
REMARK  9 active torsions:
REMARK  status: ('A' for Active; 'I' for Inactive)
REMARK    1  A    between atoms: C_1  and  C_2
REMARK    2  A    between atoms: C_1  and  N_4
REMARK    3  A    between atoms: C_1  and  C_15
REMARK    4  A    between atoms: C_1  and  C_21
REMARK    5  A    between atoms: N_4  and  C_5
REMARK    6  A    between atoms: C_5  and  C_6
REMARK    7  A    between atoms: C_6  and  C_7
REMARK    8  A    between atoms: C_13  and  C_23
REMARK    9  A    between atoms: C_21  and  C_22
REMARK                            x       y       z     vdW  Elec       q    Type
REMARK                         _______ _______ _______ _____ _____    ______ ____
ROOT
ATOM     10  N   UNL     1      -6.649   0.375   0.000  0.00  0.00    -0.275 N 
ATOM     11  C   UNL     1      -5.899  -0.924   0.000  0.00  0.00    +0.248 C 
ATOM     18  O   UNL     1      -6.649  -2.223   0.000  0.00  0.00    -0.270 OA
ENDROOT
BRANCH  11  12
ATOM     12  C   UNL     1      -4.399  -0.924   0.000  0.00  0.00    +0.037 A 
ATOM     13  C   UNL     1      -3.650  -2.223   0.000  0.00  0.00    +0.013 A 
ATOM     14  C   UNL     1      -2.150  -2.223   0.000  0.00  0.00    +0.001 A 
ATOM     15  C   UNL     1      -1.400  -0.924   0.000  0.00  0.00    +0.000 A 
ATOM     16  C   UNL     1      -2.150   0.375   0.000  0.00  0.00    +0.001 A 
ATOM     17  C   UNL     1      -3.650   0.375   0.000  0.00  0.00    +0.013 A 
ENDBRANCH  11  12
BRANCH  10   1
ATOM      1  C   UNL     1      -8.149   0.375   0.000  0.00  0.00    +0.149 C 
BRANCH   1   4
ATOM      4  C   UNL     1      -9.649   0.375   0.000  0.00  0.00    -0.010 A 
ATOM      5  C   UNL     1     -10.400   1.674   0.000  0.00  0.00    +0.007 A 
ATOM      6  C   UNL     1     -11.900   1.674   0.000  0.00  0.00    +0.000 A 
ATOM      7  C   UNL     1     -12.650   0.375   0.000  0.00  0.00    +0.000 A 
ATOM      8  C   UNL     1     -11.900  -0.924   0.000  0.00  0.00    +0.000 A 
ATOM      9  C   UNL     1     -10.400  -0.924   0.000  0.00  0.00    +0.007 A 
ENDBRANCH   1   4
BRANCH   1   2
ATOM      2  C   UNL     1      -8.149   1.875   0.000  0.00  0.00    +0.043 C 
ATOM      3  C   UNL     1      -9.449   2.625   0.000  0.00  0.00    +0.007 C 
ENDBRANCH   1   2
BRANCH   1  27
ATOM     27  C   UNL     1      -8.149  -1.125   0.000  0.00  0.00    +0.093 C 
ATOM     28  N   UNL     1      -8.149  -2.625   0.000  0.00  0.00    -0.194 NA
ENDBRANCH   1  27
ENDBRANCH  10   1
BRANCH  10  19
ATOM     19  C   UNL     1      -5.899   1.674   0.000  0.00  0.00    +0.114 C 
BRANCH  19  20
ATOM     20  C   UNL     1      -6.864   2.823   0.000  0.00  0.00    +0.054 C 
BRANCH  20  21
ATOM     21  C   UNL     1      -6.351   4.233   0.000  0.00  0.00    -0.046 A 
ATOM     22  C   UNL     1      -7.315   5.382   0.000  0.00  0.00    +0.004 A 
ATOM     23  C   UNL     1      -6.802   6.791   0.000  0.00  0.00    +0.000 A 
ATOM     24  C   UNL     1      -5.325   7.052   0.000  0.00  0.00    +0.000 A 
ATOM     25  C   UNL     1      -4.360   5.903   0.000  0.00  0.00    +0.000 A 
ATOM     26  C   UNL     1      -4.873   4.493   0.000  0.00  0.00    +0.004 A 
ENDBRANCH  20  21
ENDBRANCH  19  20
ENDBRANCH  10  19
TORSDOF 8