REMARK  Name = 679527
REMARK  11 active torsions:
REMARK  status: ('A' for Active; 'I' for Inactive)
REMARK    1  A    between atoms: C_1  and  C_25
REMARK    2  A    between atoms: C_4  and  C_5
REMARK    3  A    between atoms: N_7  and  S_21
REMARK    4  A    between atoms: C_8  and  C_10
REMARK    5  A    between atoms: C_10  and  O_12
REMARK    6  A    between atoms: O_12  and  C_13
REMARK    7  A    between atoms: C_14  and  S_21
REMARK    8  A    between atoms: C_17  and  C_20
REMARK    9  A    between atoms: C_25  and  O_27
REMARK   10  A    between atoms: O_27  and  C_28
REMARK   11  A    between atoms: C_28  and  C_29
REMARK                            x       y       z     vdW  Elec       q    Type
REMARK                         _______ _______ _______ _____ _____    ______ ____
ROOT
ATOM     13  C   UNL     1      -7.669   5.077   0.000  0.00  0.00    +0.004 A 
ATOM     14  C   UNL     1      -7.358   6.545   0.000  0.00  0.00    +0.045 A 
ATOM     15  C   UNL     1      -5.866   6.702   0.000  0.00  0.00    +0.149 A 
ATOM     20  N   UNL     1      -5.255   5.332   0.000  0.00  0.00    -0.211 N 
ATOM     31  C   UNL     1      -6.370   4.328   0.000  0.00  0.00    +0.121 A 
ENDROOT
BRANCH  13  12
ATOM      1  C   UNL     1     -10.339   5.216   0.000  0.00  0.00    +0.084 A 
ATOM     12  C   UNL     1      -9.039   4.467   0.000  0.00  0.00    +0.015 A 
ATOM     32  C   UNL     1      -9.351   2.999   0.000  0.00  0.00    +0.092 A 
ATOM     33  N   UNL     1     -10.842   2.842   0.000  0.00  0.00    -0.366 N 
ATOM     34  H   UNL     1     -11.334   1.989   0.000  0.00  0.00    +0.165 HD
ATOM     35  C   UNL     1     -11.453   4.212   0.000  0.00  0.00    +0.098 A 
BRANCH   1   2
ATOM      2  C   UNL     1     -10.496   6.708   0.000  0.00  0.00    +0.342 C 
ATOM     11  O   UNL     1      -9.283   7.590   0.000  0.00  0.00    -0.245 OA
BRANCH   2   3
ATOM      3  O   UNL     1     -11.866   7.317   0.000  0.00  0.00    -0.456 OA
BRANCH   3   4
ATOM      4  C   UNL     1     -12.024   8.809   0.000  0.00  0.00    +0.268 C 
BRANCH   4   5
ATOM      5  C   UNL     1     -13.394   9.419   0.000  0.00  0.00    -0.010 A 
ATOM      6  C   UNL     1     -14.886   9.261   0.000  0.00  0.00    +0.007 A 
ATOM      7  C   UNL     1     -15.496   7.891   0.000  0.00  0.00    +0.000 A 
ATOM      8  C   UNL     1     -16.378   9.104   0.000  0.00  0.00    +0.000 A 
ATOM      9  C   UNL     1     -15.768  10.475   0.000  0.00  0.00    +0.000 A 
ATOM     10  C   UNL     1     -14.277  10.632   0.000  0.00  0.00    +0.007 A 
ENDBRANCH   4   5
ENDBRANCH   3   4
ENDBRANCH   2   3
ENDBRANCH   1   2
ENDBRANCH  13  12
BRANCH  20  21
ATOM     21  S   UNL     1      -3.788   5.021   0.000  0.00  0.00    +0.084 S 
ATOM     22  O   UNL     1      -2.321   4.709   0.000  0.00  0.00    -0.148 OA
ATOM     23  O   UNL     1      -3.477   6.488   0.000  0.00  0.00    -0.148 OA
BRANCH  21  24
ATOM     24  C   UNL     1      -4.099   3.553   0.000  0.00  0.00    +0.111 A 
ATOM     25  C   UNL     1      -2.984   2.550   0.000  0.00  0.00    +0.029 A 
ATOM     26  C   UNL     1      -3.296   1.083   0.000  0.00  0.00    +0.005 A 
ATOM     27  C   UNL     1      -4.722   0.619   0.000  0.00  0.00    -0.050 A 
ATOM     28  C   UNL     1      -5.033  -0.849   0.000  0.00  0.00    +0.044 C 
ATOM     29  C   UNL     1      -5.837   1.622   0.000  0.00  0.00    +0.005 A 
ATOM     30  C   UNL     1      -5.526   3.089   0.000  0.00  0.00    +0.029 A 
ENDBRANCH  21  24
ENDBRANCH  20  21
BRANCH  15  16
ATOM     16  C   UNL     1      -5.117   8.001   0.000  0.00  0.00    +0.357 C 
ATOM     19  O   UNL     1      -3.616   8.002   0.000  0.00  0.00    -0.243 OA
BRANCH  16  17
ATOM     17  O   UNL     1      -5.867   9.300   0.000  0.00  0.00    -0.463 OA
ATOM     18  C   UNL     1      -7.367   9.299   0.000  0.00  0.00    +0.280 C 
ENDBRANCH  16  17
ENDBRANCH  15  16
TORSDOF 9