REMARK  Name = 373535
REMARK  2 active torsions:
REMARK  status: ('A' for Active; 'I' for Inactive)
REMARK    1  A    between atoms: C_2  and  C_12
REMARK    2  A    between atoms: C_3  and  N_18
REMARK                            x       y       z     vdW  Elec       q    Type
REMARK                         _______ _______ _______ _____ _____    ______ ____
ROOT
ATOM      1  O   UNL     1      -7.024   2.324   0.000  0.00  0.00    -0.270 OA
ATOM      2  C   UNL     1      -7.774   1.025   0.000  0.00  0.00    +0.245 C 
ATOM      3  N   UNL     1      -7.024  -0.275   0.000  0.00  0.00    -0.300 N 
ATOM      4  H   UNL     1      -7.517  -1.127   0.000  0.00  0.00    +0.150 HD
ENDROOT
BRANCH   3   5
ATOM      5  C   UNL     1      -5.524  -0.275   0.000  0.00  0.00    +0.160 C 
ATOM      6  C   UNL     1      -4.774  -1.574   0.000  0.00  0.00    +0.240 C 
ATOM      7  N   UNL     1      -3.275  -1.574   0.000  0.00  0.00    -0.255 N 
ATOM      8  H   UNL     1      -2.525  -2.873   0.000  0.00  0.00    +0.158 HD
ATOM      9  C   UNL     1      -2.525  -0.275   0.000  0.00  0.00    +0.219 C 
ATOM     10  O   UNL     1      -1.025  -0.275   0.000  0.00  0.00    -0.275 OA
ATOM     11  C   UNL     1      -3.275   1.025   0.000  0.00  0.00    +0.098 C 
ATOM     12  O   UNL     1      -5.524  -2.873   0.000  0.00  0.00    -0.273 OA
ATOM     13  C   UNL     1      -4.774   1.025   0.000  0.00  0.00    +0.041 C 
ENDBRANCH   3   5
BRANCH   2  14
ATOM     14  C   UNL     1      -9.274   1.025   0.000  0.00  0.00    +0.037 A 
ATOM     15  C   UNL     1     -10.025   2.324   0.000  0.00  0.00    +0.013 A 
ATOM     16  C   UNL     1     -11.525   2.324   0.000  0.00  0.00    +0.001 A 
ATOM     17  C   UNL     1     -12.275   1.025   0.000  0.00  0.00    +0.000 A 
ATOM     18  C   UNL     1     -11.525  -0.275   0.000  0.00  0.00    +0.001 A 
ATOM     19  C   UNL     1     -10.025  -0.275   0.000  0.00  0.00    +0.013 A 
ENDBRANCH   2  14
TORSDOF 2