REMARK  Name = 373600
REMARK  13 active torsions:
REMARK  status: ('A' for Active; 'I' for Inactive)
REMARK    1  A    between atoms: C_8  and  C_17
REMARK    2  A    between atoms: C_9  and  C_18
REMARK    3  A    between atoms: C_10  and  C_19
REMARK    4  A    between atoms: O_11  and  C_12
REMARK    5  A    between atoms: O_11  and  C_17
REMARK    6  A    between atoms: O_14  and  C_16
REMARK    7  A    between atoms: O_14  and  C_19
REMARK    8  A    between atoms: N_20  and  C_21
REMARK    9  A    between atoms: C_21  and  C_22
REMARK   10  A    between atoms: C_21  and  C_23
REMARK   11  A    between atoms: N_24  and  C_25
REMARK   12  A    between atoms: C_25  and  C_26
REMARK   13  A    between atoms: C_25  and  C_27
REMARK                            x       y       z     vdW  Elec       q    Type
REMARK                         _______ _______ _______ _____ _____    ______ ____
ROOT
ATOM      1  O   UNL     1      -5.227   0.352   0.000  0.00  0.00    -0.172 OA
ATOM      2  S   UNL     1      -4.177  -0.719   0.000  0.00  0.00    -0.007 S 
ATOM      3  C   UNL     1      -3.372  -1.985   0.000  0.00  0.00    +0.288 C 
ATOM      4  N   UNL     1      -1.920  -1.611   0.000  0.00  0.00    -0.326 N 
ATOM      5  C   UNL     1      -0.524  -2.162   0.000  0.00  0.00    +0.024 A 
ATOM      6  C   UNL     1      -0.150  -3.614   0.000  0.00  0.00    +0.064 C 
ATOM      7  C   UNL     1       0.431  -1.005   0.000  0.00  0.00    +0.017 A 
ATOM     17  C   UNL     1      -0.374   0.261   0.000  0.00  0.00    +0.019 A 
ATOM     27  C   UNL     1      -1.827  -0.113   0.000  0.00  0.00    +0.048 A 
ATOM     28  C   UNL     1      -3.222   0.438   0.000  0.00  0.00    +0.221 C 
ATOM     29  O   UNL     1      -5.352  -1.652   0.000  0.00  0.00    -0.172 OA
ENDROOT
BRANCH   7   8
ATOM      8  C   UNL     1       1.928  -1.098   0.000  0.00  0.00    +0.271 C 
BRANCH   8   9
ATOM      9  O   UNL     1       2.353  -2.536   0.000  0.00  0.00    -0.446 OA
BRANCH   9  10
ATOM     10  C   UNL     1       3.850  -2.629   0.000  0.00  0.00    +0.401 C 
ATOM     11  N   UNL     1       4.518  -3.972   0.000  0.00  0.00    -0.279 N 
ATOM     12  H   UNL     1       5.501  -4.033   0.000  0.00  0.00    +0.152 HD
ATOM     16  O   UNL     1       4.679  -1.379   0.000  0.00  0.00    -0.226 OA
BRANCH  11  13
ATOM     13  C   UNL     1       3.689  -5.222   0.000  0.00  0.00    +0.070 C 
ATOM     14  C   UNL     1       4.357  -6.565   0.000  0.00  0.00    +0.027 C 
ATOM     15  C   UNL     1       2.192  -5.130   0.000  0.00  0.00    +0.027 C 
ENDBRANCH  11  13
ENDBRANCH   9  10
ENDBRANCH   8   9
ENDBRANCH   7   8
BRANCH  17  18
ATOM     18  C   UNL     1       0.177   1.656   0.000  0.00  0.00    +0.271 C 
BRANCH  18  19
ATOM     19  O   UNL     1      -0.756   2.831   0.000  0.00  0.00    -0.446 OA
BRANCH  19  20
ATOM     20  C   UNL     1      -0.205   4.226   0.000  0.00  0.00    +0.401 C 
ATOM     21  N   UNL     1      -1.138   5.401   0.000  0.00  0.00    -0.279 N 
ATOM     22  H   UNL     1      -2.111   5.256   0.000  0.00  0.00    +0.152 HD
ATOM     26  O   UNL     1       1.279   4.446   0.000  0.00  0.00    -0.226 OA
BRANCH  21  23
ATOM     23  C   UNL     1      -0.587   6.796   0.000  0.00  0.00    +0.070 C 
ATOM     24  C   UNL     1      -1.519   7.971   0.000  0.00  0.00    +0.027 C 
ATOM     25  C   UNL     1       0.897   7.016   0.000  0.00  0.00    +0.027 C 
ENDBRANCH  21  23
ENDBRANCH  19  20
ENDBRANCH  18  19
ENDBRANCH  17  18
TORSDOF 8