REMARK  Name = 37408
REMARK  2 active torsions:
REMARK  status: ('A' for Active; 'I' for Inactive)
REMARK    1  A    between atoms: C_3  and  O_12
REMARK    2  A    between atoms: C_5  and  O_11
REMARK                            x       y       z     vdW  Elec       q    Type
REMARK                         _______ _______ _______ _____ _____    ______ ____
ROOT
ATOM      1  O   UNL     1      -3.133   0.730   0.000  0.00  0.00    -0.480 OA
ATOM      2  C   UNL     1      -2.251  -0.484   0.000  0.00  0.00    +0.308 C 
ATOM      3  C   UNL     1      -3.133  -1.697   0.000  0.00  0.00    +0.204 C 
ATOM      4  C   UNL     1      -4.560  -1.234   0.000  0.00  0.00    +0.066 A 
ATOM      5  C   UNL     1      -5.859  -1.984   0.000  0.00  0.00    +0.019 A 
ATOM      6  C   UNL     1      -7.158  -1.234   0.000  0.00  0.00    +0.050 A 
ATOM      7  C   UNL     1      -7.158   0.266   0.000  0.00  0.00    +0.162 A 
ATOM     10  C   UNL     1      -5.859   1.016   0.000  0.00  0.00    +0.202 A 
ATOM     13  O   UNL     1      -2.670  -3.124   0.000  0.00  0.00    -0.288 OA
ATOM     14  C   UNL     1      -4.560   0.266   0.000  0.00  0.00    +0.177 A 
ENDROOT
BRANCH   7   8
ATOM      8  O   UNL     1      -8.457   1.016   0.000  0.00  0.00    -0.503 OA
ATOM      9  H   UNL     1      -8.457   1.953   0.000  0.00  0.00    +0.292 HD
ENDBRANCH   7   8
BRANCH  10  11
ATOM     11  O   UNL     1      -5.859   2.516   0.000  0.00  0.00    -0.501 OA
ATOM     12  H   UNL     1      -5.047   2.985   0.000  0.00  0.00    +0.292 HD
ENDBRANCH  10  11
TORSDOF 2