REMARK  Name = 370383
REMARK  6 active torsions:
REMARK  status: ('A' for Active; 'I' for Inactive)
REMARK    1  A    between atoms: C_2  and  C_16
REMARK    2  A    between atoms: C4*_4  and  C5*_18
REMARK    3  A    between atoms: C3*_5  and  O3*_15
REMARK    4  A    between atoms: C2*_7  and  O2*_19
REMARK    5  A    between atoms: C1*_10  and  N_12
REMARK    6  A    between atoms: O5*_14  and  C5*_18
REMARK                            x       y       z     vdW  Elec       q    Type
REMARK                         _______ _______ _______ _____ _____    ______ ____
ROOT
ATOM      9  C1* UNL     1       6.652  -3.559   0.000  0.00  0.00    +0.252 C 
ATOM     10  C2* UNL     1       8.079  -4.022   0.000  0.00  0.00    +0.195 C 
ATOM     13  C3* UNL     1       8.079  -5.522   0.000  0.00  0.00    +0.178 C 
ATOM     16  C4* UNL     1       6.652  -5.986   0.000  0.00  0.00    +0.177 C 
ATOM     20  O4* UNL     1       5.770  -4.772   0.000  0.00  0.00    -0.346 OA
ENDROOT
BRANCH   9   6
ATOM      1  C   UNL     1       2.454  -0.918   0.000  0.00  0.00    +0.155 A 
ATOM      2  C   UNL     1       3.335  -2.132   0.000  0.00  0.00    +0.114 A 
ATOM      5  C   UNL     1       4.762  -1.668   0.000  0.00  0.00    +0.156 A 
ATOM      6  N   UNL     1       6.189  -2.132   0.000  0.00  0.00    -0.301 N 
ATOM      7  C   UNL     1       7.070  -0.918   0.000  0.00  0.00    +0.110 A 
ATOM      8  C   UNL     1       6.189   0.295   0.000  0.00  0.00    +0.132 A 
ATOM     21  N   UNL     1       4.762  -0.168   0.000  0.00  0.00    -0.221 N 
ATOM     22  N   UNL     1       3.335   0.295   0.000  0.00  0.00    -0.172 NA
BRANCH   2   3
ATOM      3  C   UNL     1       2.872  -3.559   0.000  0.00  0.00    +0.104 C 
ATOM      4  N   UNL     1       2.408  -4.985   0.000  0.00  0.00    -0.191 NA
ENDBRANCH   2   3
ENDBRANCH   9   6
BRANCH  10  11
ATOM     11  O2* UNL     1       9.292  -3.140   0.000  0.00  0.00    -0.385 OA
ATOM     12  H2* UNL     1      10.178  -3.535   0.000  0.00  0.00    +0.210 HD
ENDBRANCH  10  11
BRANCH  13  14
ATOM     14  O3* UNL     1       9.292  -6.404   0.000  0.00  0.00    -0.386 OA
ATOM     15  H3* UNL     1       9.191  -7.368   0.000  0.00  0.00    +0.210 HD
ENDBRANCH  13  14
BRANCH  16  17
ATOM     17  C5* UNL     1       6.189  -7.412   0.000  0.00  0.00    +0.190 C 
BRANCH  17  18
ATOM     18  O5* UNL     1       7.192  -8.527   0.000  0.00  0.00    -0.392 OA
ATOM     19  H5* UNL     1       6.893  -9.449   0.000  0.00  0.00    +0.210 HD
ENDBRANCH  17  18
ENDBRANCH  16  17
TORSDOF 6