REMARK  Name = 370387
REMARK  1 active torsions:
REMARK  status: ('A' for Active; 'I' for Inactive)
REMARK    1  A    between atoms: C_10  and  C_13
REMARK                            x       y       z     vdW  Elec       q    Type
REMARK                         _______ _______ _______ _____ _____    ______ ____
ROOT
ATOM      1  H   UNL     1       2.924   4.890   0.000  0.00  0.00    +0.170 HD
ATOM      2  N   UNL     1       4.223   4.140   0.000  0.00  0.00    -0.313 N 
ATOM      3  C   UNL     1       4.223   2.640   0.000  0.00  0.00    +0.201 A 
ATOM      4  N   UNL     1       5.522   1.890   0.000  0.00  0.00    -0.218 NA
ATOM      5  C   UNL     1       6.821   2.640   0.000  0.00  0.00    +0.164 A 
ATOM      6  N   UNL     1       8.247   2.177   0.000  0.00  0.00    -0.259 N 
ATOM      7  H   UNL     1       8.711   0.750   0.000  0.00  0.00    +0.191 HD
ATOM      8  N   UNL     1       9.129   3.390   0.000  0.00  0.00    -0.161 NA
ATOM      9  C   UNL     1       8.247   4.604   0.000  0.00  0.00    +0.176 A 
ATOM     12  C   UNL     1       6.821   4.140   0.000  0.00  0.00    +0.120 A 
ATOM     13  C   UNL     1       5.522   4.890   0.000  0.00  0.00    +0.263 A 
ATOM     14  O   UNL     1       5.522   6.390   0.000  0.00  0.00    -0.267 OA
ENDROOT
BRANCH   9  10
ATOM     10  C   UNL     1       8.711   6.030   0.000  0.00  0.00    +0.122 C 
ATOM     11  N   UNL     1       9.174   7.457   0.000  0.00  0.00    -0.189 NA
ENDBRANCH   9  10
TORSDOF 1