REMARK  Name = 379696
REMARK  8 active torsions:
REMARK  status: ('A' for Active; 'I' for Inactive)
REMARK    1  A    between atoms: S_2  and  N_4
REMARK    2  A    between atoms: S_2  and  C_22
REMARK    3  A    between atoms: S_5  and  C_6
REMARK    4  A    between atoms: S_5  and  C_28
REMARK    5  A    between atoms: C_8  and  C_31
REMARK    6  A    between atoms: C_9  and  C_10
REMARK    7  A    between atoms: C_12  and  C_16
REMARK    8  A    between atoms: N_29  and  N_30
REMARK                            x       y       z     vdW  Elec       q    Type
REMARK                         _______ _______ _______ _____ _____    ______ ____
ROOT
ATOM     14  N   UNL     1      -9.563   0.331   0.000  0.00  0.00    -0.231 N 
ATOM     15  H   UNL     1      -9.964  -0.568   0.000  0.00  0.00    +0.173 HD
ATOM     16  C   UNL     1      -8.072   0.488   0.000  0.00  0.00    +0.266 C 
ATOM     31  O   UNL     1      -7.462   1.858   0.000  0.00  0.00    -0.268 OA
ENDROOT
BRANCH  16  17
ATOM     17  C   UNL     1      -7.190  -0.726   0.000  0.00  0.00    +0.108 A 
ATOM     18  C   UNL     1      -5.690  -0.726   0.000  0.00  0.00    +0.129 A 
ATOM     19  N   UNL     1      -5.226  -2.152   0.000  0.00  0.00    -0.077 NA
ATOM     20  O   UNL     1      -6.440  -3.034   0.000  0.00  0.00    -0.359 OA
ATOM     29  C   UNL     1      -7.653  -2.152   0.000  0.00  0.00    +0.147 A 
ATOM     30  C   UNL     1      -9.080  -2.616   0.000  0.00  0.00    +0.090 C 
BRANCH  18  21
ATOM     21  C   UNL     1      -4.235   1.277   0.000  0.00  0.00    +0.041 A 
ATOM     22  C   UNL     1      -2.743   1.120   0.000  0.00  0.00    +0.052 A 
ATOM     23 CL   UNL     1      -2.133  -0.250   0.000  0.00  0.00    -0.083 Cl
ATOM     24  C   UNL     1      -1.862   2.333   0.000  0.00  0.00    +0.021 A 
ATOM     25  C   UNL     1      -2.472   3.704   0.000  0.00  0.00    +0.003 A 
ATOM     26  C   UNL     1      -3.964   3.861   0.000  0.00  0.00    +0.021 A 
ATOM     27  C   UNL     1      -4.845   2.647   0.000  0.00  0.00    +0.052 A 
ATOM     28 CL   UNL     1      -6.337   2.804   0.000  0.00  0.00    -0.083 Cl
ENDBRANCH  18  21
ENDBRANCH  16  17
BRANCH  14  12
ATOM     10  N   UNL     1     -10.717   4.128   0.000  0.00  0.00    -0.105 NA
ATOM     11  C   UNL     1      -9.835   2.915   0.000  0.00  0.00    +0.191 C 
ATOM     12  N   UNL     1     -10.445   1.545   0.000  0.00  0.00    -0.242 N 
ATOM     13  H   UNL     1     -11.424   1.442   0.000  0.00  0.00    +0.172 HD
BRANCH  10   2
ATOM      1  O   UNL     1      -8.736   4.889   0.000  0.00  0.00    -0.146 OA
ATOM      2  S   UNL     1     -10.107   5.499   0.000  0.00  0.00    +0.101 S 
ATOM      9  O   UNL     1     -11.477   6.109   0.000  0.00  0.00    -0.146 OA
BRANCH   2   3
ATOM      3  C   UNL     1      -9.496   6.869   0.000  0.00  0.00    +0.113 A 
ATOM      4  C   UNL     1      -8.005   7.026   0.000  0.00  0.00    +0.029 A 
ATOM      5  C   UNL     1      -7.394   8.396   0.000  0.00  0.00    +0.002 A 
ATOM      6  C   UNL     1      -8.276   9.610   0.000  0.00  0.00    +0.000 A 
ATOM      7  C   UNL     1      -9.768   9.453   0.000  0.00  0.00    +0.002 A 
ATOM      8  C   UNL     1     -10.378   8.083   0.000  0.00  0.00    +0.029 A 
ENDBRANCH   2   3
ENDBRANCH  10   2
BRANCH  11  32
ATOM     32  S   UNL     1      -8.343   3.072   0.000  0.00  0.00    -0.091 S 
ATOM     33  C   UNL     1      -7.733   4.442   0.000  0.00  0.00    +0.093 C 
ENDBRANCH  11  32
ENDBRANCH  14  12
TORSDOF 6