REMARK  Name = 371765
REMARK  4 active torsions:
REMARK  status: ('A' for Active; 'I' for Inactive)
REMARK    1  A    between atoms: N_1  and  C_18
REMARK    2  A    between atoms: C_4  and  C_6
REMARK    3  A    between atoms: C_5  and  C_24
REMARK    4  A    between atoms: C_9  and  N_25
REMARK                            x       y       z     vdW  Elec       q    Type
REMARK                         _______ _______ _______ _____ _____    ______ ____
ROOT
ATOM     12  C   UNL     1       4.767   7.654   0.000  0.00  0.00    +0.270 C 
ATOM     13  N   UNL     1       6.138   7.044   0.000  0.00  0.00    -0.280 N 
ATOM     14  H   UNL     1       6.240   6.065   0.000  0.00  0.00    +0.155 HD
ATOM     25  O   UNL     1       4.610   9.146   0.000  0.00  0.00    -0.268 OA
ENDROOT
BRANCH  13  15
ATOM     15  C   UNL     1       7.351   7.926   0.000  0.00  0.00    +0.034 A 
ATOM     16  C   UNL     1       7.194   9.417   0.000  0.00  0.00    +0.035 A 
ATOM     17  C   UNL     1       8.408  10.299   0.000  0.00  0.00    +0.021 A 
ATOM     18  C   UNL     1       8.565  11.791   0.000  0.00  0.00    +0.142 A 
ATOM     19  N   UNL     1      10.032  12.103   0.000  0.00  0.00    -0.181 NA
ATOM     20  N   UNL     1      10.782  10.804   0.000  0.00  0.00    -0.277 N 
ATOM     21  H   UNL     1      12.274  10.647   0.000  0.00  0.00    +0.189 HD
ATOM     22  C   UNL     1       9.778   9.689   0.000  0.00  0.00    +0.066 A 
ATOM     23  C   UNL     1       9.935   8.197   0.000  0.00  0.00    +0.029 A 
ATOM     24  C   UNL     1       8.721   7.315   0.000  0.00  0.00    +0.025 A 
ENDBRANCH  13  15
BRANCH  12  11
ATOM      1  N   UNL     1       1.245   6.022   0.000  0.00  0.00    -0.149 N 
ATOM      8  N   UNL     1       2.127   4.809   0.000  0.00  0.00    -0.152 NA
ATOM      9  C   UNL     1       3.554   5.272   0.000  0.00  0.00    +0.093 A 
ATOM     10  C   UNL     1       4.767   4.391   0.000  0.00  0.00    +0.070 C 
ATOM     11  C   UNL     1       3.554   6.772   0.000  0.00  0.00    +0.170 A 
ATOM     26  N   UNL     1       2.127   7.236   0.000  0.00  0.00    -0.142 NA
BRANCH   1   2
ATOM      2  C   UNL     1      -0.255   6.022   0.000  0.00  0.00    +0.086 A 
ATOM      3  C   UNL     1      -1.005   7.321   0.000  0.00  0.00    +0.029 A 
ATOM      4  C   UNL     1      -2.505   7.321   0.000  0.00  0.00    +0.002 A 
ATOM      5  C   UNL     1      -3.255   6.022   0.000  0.00  0.00    +0.000 A 
ATOM      6  C   UNL     1      -2.505   4.723   0.000  0.00  0.00    +0.002 A 
ATOM      7  C   UNL     1      -1.005   4.723   0.000  0.00  0.00    +0.029 A 
ENDBRANCH   1   2
ENDBRANCH  12  11
TORSDOF 3