REMARK  Name = 370367
REMARK  1 active torsions:
REMARK  status: ('A' for Active; 'I' for Inactive)
REMARK    1  A    between atoms: N_6  and  C_7
REMARK                            x       y       z     vdW  Elec       q    Type
REMARK                         _______ _______ _______ _____ _____    ______ ____
ROOT
ATOM      1  N   UNL     1       0.750   2.799   0.000  0.00  0.00    -0.340 N 
ATOM      2  H   UNL     1      -0.046   3.378   0.000  0.00  0.00    +0.167 HD
ATOM      3  C   UNL     1       0.750   1.299   0.000  0.00  0.00    +0.103 A 
ATOM      4  C   UNL     1       2.177   0.836   0.000  0.00  0.00    +0.111 A 
ATOM      5  N   UNL     1       3.058   2.049   0.000  0.00  0.00    -0.294 N 
ATOM     13  C   UNL     1       2.177   3.263   0.000  0.00  0.00    +0.162 A 
ATOM     14  S   UNL     1       2.640   4.689   0.000  0.00  0.00    -0.013 S 
ENDROOT
BRANCH   5   6
ATOM      6  C   UNL     1       4.558   2.049   0.000  0.00  0.00    +0.067 A 
ATOM      7  C   UNL     1       5.308   0.750   0.000  0.00  0.00    +0.028 A 
ATOM      8  C   UNL     1       6.808   0.750   0.000  0.00  0.00    +0.002 A 
ATOM      9  C   UNL     1       7.558   2.049   0.000  0.00  0.00    +0.002 A 
ATOM     10  C   UNL     1       6.808   3.348   0.000  0.00  0.00    +0.022 A 
ATOM     11  C   UNL     1       5.308   3.348   0.000  0.00  0.00    +0.065 A 
ATOM     12 CL   UNL     1       4.558   4.647   0.000  0.00  0.00    -0.081 Cl
ENDBRANCH   5   6
TORSDOF 1