REMARK  Name = 37187
REMARK  4 active torsions:
REMARK  status: ('A' for Active; 'I' for Inactive)
REMARK    1  A    between atoms: C_2  and  C_22
REMARK    2  A    between atoms: C_3  and  N_21
REMARK    3  A    between atoms: C_10  and  C_19
REMARK    4  A    between atoms: C_13  and  O_18
REMARK                            x       y       z     vdW  Elec       q    Type
REMARK                         _______ _______ _______ _____ _____    ______ ____
ROOT
ATOM      5  N   UNL     1      -6.221   3.275   0.000  0.00  0.00    -0.281 N 
ATOM      6  H   UNL     1      -7.073   2.782   0.000  0.00  0.00    +0.155 HD
ATOM      7  C   UNL     1      -6.221   4.774   0.000  0.00  0.00    +0.252 C 
ATOM      8  O   UNL     1      -4.922   5.524   0.000  0.00  0.00    -0.270 OA
ENDROOT
BRANCH   7   9
ATOM      9  C   UNL     1      -7.520   5.524   0.000  0.00  0.00    +0.079 A 
ATOM     10  C   UNL     1      -8.819   4.774   0.000  0.00  0.00    +0.130 A 
ATOM     13  C   UNL     1     -10.118   5.524   0.000  0.00  0.00    +0.054 A 
ATOM     14  C   UNL     1     -10.118   7.024   0.000  0.00  0.00    -0.014 A 
ATOM     15  C   UNL     1     -11.417   7.774   0.000  0.00  0.00    +0.008 A 
ATOM     16  C   UNL     1     -11.417   9.274   0.000  0.00  0.00    +0.001 A 
ATOM     17  C   UNL     1     -10.118  10.025   0.000  0.00  0.00    +0.001 A 
ATOM     18  C   UNL     1      -8.819   9.274   0.000  0.00  0.00    +0.008 A 
ATOM     19  C   UNL     1      -8.819   7.774   0.000  0.00  0.00    -0.017 A 
ATOM     20  C   UNL     1      -7.520   7.024   0.000  0.00  0.00    +0.025 A 
BRANCH  10  11
ATOM     11  O   UNL     1      -8.819   3.275   0.000  0.00  0.00    -0.506 OA
ATOM     12  H   UNL     1      -9.630   2.806   0.000  0.00  0.00    +0.292 HD
ENDBRANCH  10  11
ENDBRANCH   7   9
BRANCH   5   4
ATOM      1 CL   UNL     1      -3.623  -1.226   0.000  0.00  0.00    -0.083 Cl
ATOM      2  C   UNL     1      -3.623   0.275   0.000  0.00  0.00    +0.043 A 
ATOM      3  C   UNL     1      -4.922   1.025   0.000  0.00  0.00    +0.043 A 
ATOM      4  C   UNL     1      -4.922   2.525   0.000  0.00  0.00    +0.038 A 
ATOM     21  C   UNL     1      -3.623   3.275   0.000  0.00  0.00    -0.029 A 
ATOM     22  C   UNL     1      -3.623   4.774   0.000  0.00  0.00    +0.045 C 
ATOM     23  C   UNL     1      -2.324   2.525   0.000  0.00  0.00    +0.006 A 
ATOM     24  C   UNL     1      -2.324   1.025   0.000  0.00  0.00    +0.020 A 
ENDBRANCH   5   4
TORSDOF 3