REMARK  Name = 379099
REMARK  6 active torsions:
REMARK  status: ('A' for Active; 'I' for Inactive)
REMARK    1  A    between atoms: C_2  and  O_24
REMARK    2  A    between atoms: C_13  and  C_25
REMARK    3  A    between atoms: N_14  and  C_17
REMARK    4  A    between atoms: C_16  and  O_26
REMARK    5  A    between atoms: C_22  and  O_23
REMARK    6  A    between atoms: O_23  and  C_27
REMARK                            x       y       z     vdW  Elec       q    Type
REMARK                         _______ _______ _______ _____ _____    ______ ____
ROOT
ATOM      1 CL   UNL     1       0.750   0.750   0.000  0.00  0.00    -0.080 Cl
ATOM      2  C   UNL     1       2.049   1.500   0.000  0.00  0.00    +0.087 A 
ATOM      3  C   UNL     1       3.348   0.750   0.000  0.00  0.00    +0.070 A 
ATOM      4  C   UNL     1       4.647   1.500   0.000  0.00  0.00    +0.139 A 
ATOM      5  O   UNL     1       6.074   1.037   0.000  0.00  0.00    -0.454 OA
ATOM      6  C   UNL     1       6.955   2.250   0.000  0.00  0.00    +0.148 A 
ATOM      7  C   UNL     1       8.447   2.407   0.000  0.00  0.00    +0.077 A 
ATOM     18  C   UNL     1       9.057   3.777   0.000  0.00  0.00    +0.129 A 
ATOM     21  C   UNL     1       8.176   4.991   0.000  0.00  0.00    +0.047 A 
ATOM     22  C   UNL     1       6.684   4.834   0.000  0.00  0.00    +0.016 A 
ATOM     23  C   UNL     1       6.074   3.463   0.000  0.00  0.00    +0.030 A 
ATOM     24  C   UNL     1       4.647   3.000   0.000  0.00  0.00    +0.050 A 
ATOM     25  C   UNL     1       3.348   3.750   0.000  0.00  0.00    +0.095 A 
ATOM     26 CL   UNL     1       3.348   5.250   0.000  0.00  0.00    -0.079 Cl
ATOM     27  C   UNL     1       2.049   3.000   0.000  0.00  0.00    +0.154 A 
ENDROOT
BRANCH   7   8
ATOM      8  C   UNL     1       9.902   0.405   0.000  0.00  0.00    +0.126 C 
ATOM      9  N   UNL     1      11.394   0.561   0.000  0.00  0.00    -0.255 NA
BRANCH   9  10
ATOM     10  C   UNL     1      12.004   1.932   0.000  0.00  0.00    +0.064 A 
ATOM     11  C   UNL     1      13.496   2.088   0.000  0.00  0.00    +0.031 A 
ATOM     12  C   UNL     1      14.106   3.459   0.000  0.00  0.00    +0.048 A 
ATOM     13  C   UNL     1      13.224   4.672   0.000  0.00  0.00    +0.120 A 
ATOM     16  C   UNL     1      11.732   4.515   0.000  0.00  0.00    +0.048 A 
ATOM     17  C   UNL     1      11.122   3.145   0.000  0.00  0.00    +0.031 A 
BRANCH  13  14
ATOM     14  O   UNL     1      13.834   6.043   0.000  0.00  0.00    -0.495 OA
ATOM     15  C   UNL     1      12.953   7.256   0.000  0.00  0.00    +0.277 C 
ENDBRANCH  13  14
ENDBRANCH   9  10
ENDBRANCH   7   8
BRANCH  18  19
ATOM     19  O   UNL     1      10.549   3.934   0.000  0.00  0.00    -0.506 OA
ATOM     20  H   UNL     1      11.100   3.176   0.000  0.00  0.00    +0.292 HD
ENDBRANCH  18  19
BRANCH  27  28
ATOM     28  O   UNL     1       0.750   3.750   0.000  0.00  0.00    -0.504 OA
ATOM     29  H   UNL     1       0.750   4.687   0.000  0.00  0.00    +0.292 HD
ENDBRANCH  27  28
TORSDOF 5