REMARK  Name = 372134
REMARK  6 active torsions:
REMARK  status: ('A' for Active; 'I' for Inactive)
REMARK    1  A    between atoms: C_6  and  C_11
REMARK    2  A    between atoms: C_7  and  N_12
REMARK    3  A    between atoms: N_10  and  C_13
REMARK    4  A    between atoms: N_10  and  C_14
REMARK    5  A    between atoms: C_14  and  C_15
REMARK    6  A    between atoms: C_15  and  O_16
REMARK                            x       y       z     vdW  Elec       q    Type
REMARK                         _______ _______ _______ _____ _____    ______ ____
ROOT
ATOM      6  N   UNL     1       5.250   3.348   0.000  0.00  0.00    -0.269 N 
ATOM      7  H   UNL     1       5.742   2.495   0.000  0.00  0.00    +0.156 HD
ATOM      8  C   UNL     1       6.000   4.647   0.000  0.00  0.00    +0.306 C 
ATOM      9  N   UNL     1       7.500   4.647   0.000  0.00  0.00    -0.286 N 
ATOM     14  C   UNL     1       8.250   5.946   0.000  0.00  0.00    +0.133 C 
ATOM     15  O   UNL     1       5.250   5.946   0.000  0.00  0.00    -0.252 OA
ENDROOT
BRANCH   6   5
ATOM      1  C   UNL     1       0.750   3.348   0.000  0.00  0.00    +0.020 A 
ATOM      2  C   UNL     1       1.500   2.049   0.000  0.00  0.00    +0.006 A 
ATOM      3  C   UNL     1       3.000   2.049   0.000  0.00  0.00    -0.029 A 
ATOM      4  C   UNL     1       3.750   0.750   0.000  0.00  0.00    +0.045 C 
ATOM      5  C   UNL     1       3.750   3.348   0.000  0.00  0.00    +0.039 A 
ATOM     16  C   UNL     1       3.000   4.647   0.000  0.00  0.00    +0.043 A 
ATOM     17  C   UNL     1       1.500   4.647   0.000  0.00  0.00    +0.043 A 
ATOM     18 CL   UNL     1       0.750   5.946   0.000  0.00  0.00    -0.083 Cl
ENDBRANCH   6   5
BRANCH   9  10
ATOM     10  C   UNL     1       8.250   3.348   0.000  0.00  0.00    +0.136 C 
BRANCH  10  11
ATOM     11  C   UNL     1       9.750   3.348   0.000  0.00  0.00    +0.175 C 
BRANCH  11  12
ATOM     12  O   UNL     1      10.500   4.647   0.000  0.00  0.00    -0.393 OA
ATOM     13  H   UNL     1      11.470   4.647   0.000  0.00  0.00    +0.209 HD
ENDBRANCH  11  12
ENDBRANCH  10  11
ENDBRANCH   9  10
TORSDOF 4