REMARK  Name = 372063
REMARK  3 active torsions:
REMARK  status: ('A' for Active; 'I' for Inactive)
REMARK    1  A    between atoms: C_1  and  C_6
REMARK    2  A    between atoms: C_2  and  O_12
REMARK    3  A    between atoms: C_5  and  O_14
REMARK                            x       y       z     vdW  Elec       q    Type
REMARK                         _______ _______ _______ _____ _____    ______ ____
ROOT
ATOM      1  C   UNL     1      -4.272  -3.390   0.000  0.00  0.00    +0.274 C 
ATOM      8  O   UNL     1      -3.390  -4.604   0.000  0.00  0.00    -0.458 OA
ATOM      9  C   UNL     1      -1.964  -4.140   0.000  0.00  0.00    +0.255 C 
ATOM     10  N   UNL     1      -0.750  -5.022   0.000  0.00  0.00    -0.264 NA
ATOM     11  H   UNL     1      -0.853  -6.001   0.000  0.00  0.00    +0.190 HD
ATOM     12  C   UNL     1      -1.964  -2.640   0.000  0.00  0.00    +0.220 C 
ATOM     15  C   UNL     1      -3.390  -2.177   0.000  0.00  0.00    +0.186 C 
ENDROOT
BRANCH   1   2
ATOM      2  C   UNL     1      -5.772  -3.390   0.000  0.00  0.00    +0.000 A 
ATOM      3  C   UNL     1      -6.522  -2.091   0.000  0.00  0.00    +0.008 A 
ATOM      4  C   UNL     1      -8.022  -2.091   0.000  0.00  0.00    +0.000 A 
ATOM      5  C   UNL     1      -8.772  -3.390   0.000  0.00  0.00    +0.000 A 
ATOM      6  C   UNL     1      -8.022  -4.689   0.000  0.00  0.00    +0.000 A 
ATOM      7  C   UNL     1      -6.522  -4.689   0.000  0.00  0.00    +0.008 A 
ENDBRANCH   1   2
BRANCH  12  13
ATOM     13  O   UNL     1      -0.750  -1.758   0.000  0.00  0.00    -0.500 OA
ATOM     14  H   UNL     1       0.106  -2.139   0.000  0.00  0.00    +0.292 HD
ENDBRANCH  12  13
BRANCH  15  16
ATOM     16  O   UNL     1      -3.854  -0.750   0.000  0.00  0.00    -0.504 OA
ATOM     17  H   UNL     1      -3.227  -0.054   0.000  0.00  0.00    +0.292 HD
ENDBRANCH  15  16
TORSDOF 3