REMARK  Name = 37553
REMARK  4 active torsions:
REMARK  status: ('A' for Active; 'I' for Inactive)
REMARK    1  A    between atoms: C_8  and  C_9
REMARK    2  A    between atoms: C_12  and  N_31
REMARK    3  A    between atoms: C_17  and  N_36
REMARK    4  A    between atoms: C_20  and  C_21
REMARK                            x       y       z     vdW  Elec       q    Type
REMARK                         _______ _______ _______ _____ _____    ______ ____
ROOT
ATOM      1  N   UNL     1       9.843   6.000   0.000  0.00  0.00    -0.282 N 
ATOM      2  C   UNL     1       8.544   5.250   0.000  0.00  0.00    +0.307 C 
ATOM      3  O   UNL     1       7.245   6.000   0.000  0.00  0.00    -0.252 OA
ATOM      4  N   UNL     1       8.544   3.750   0.000  0.00  0.00    -0.269 N 
ATOM      5  H   UNL     1       9.397   3.258   0.000  0.00  0.00    +0.156 HD
ATOM     18  C   UNL     1      11.142   5.250   0.000  0.00  0.00    +0.128 C 
ATOM     19  C   UNL     1      12.441   6.000   0.000  0.00  0.00    +0.128 C 
ATOM     20  N   UNL     1      12.441   7.500   0.000  0.00  0.00    -0.282 N 
ATOM     21  C   UNL     1      13.740   8.250   0.000  0.00  0.00    +0.307 C 
ATOM     22  N   UNL     1      15.039   7.500   0.000  0.00  0.00    -0.269 N 
ATOM     23  H   UNL     1      15.039   6.516   0.000  0.00  0.00    +0.156 HD
ATOM     36  O   UNL     1      13.740   9.750   0.000  0.00  0.00    -0.252 OA
ATOM     37  C   UNL     1      11.142   8.250   0.000  0.00  0.00    +0.128 C 
ATOM     38  C   UNL     1       9.843   7.500   0.000  0.00  0.00    +0.128 C 
ENDROOT
BRANCH   4   6
ATOM      6  C   UNL     1       7.245   3.000   0.000  0.00  0.00    +0.035 A 
ATOM      7  C   UNL     1       7.245   1.500   0.000  0.00  0.00    +0.023 A 
ATOM      8  C   UNL     1       5.946   0.750   0.000  0.00  0.00    +0.002 A 
ATOM      9  C   UNL     1       4.647   1.500   0.000  0.00  0.00    +0.008 A 
ATOM     10  C   UNL     1       4.647   3.000   0.000  0.00  0.00    -0.016 A 
ATOM     17  C   UNL     1       5.946   3.750   0.000  0.00  0.00    +0.031 A 
BRANCH  10  11
ATOM     11  C   UNL     1       3.348   3.750   0.000  0.00  0.00    -0.018 A 
ATOM     12  C   UNL     1       2.049   3.000   0.000  0.00  0.00    +0.008 A 
ATOM     13  C   UNL     1       0.750   3.750   0.000  0.00  0.00    +0.001 A 
ATOM     14  C   UNL     1       0.750   5.250   0.000  0.00  0.00    +0.000 A 
ATOM     15  C   UNL     1       2.049   6.000   0.000  0.00  0.00    +0.001 A 
ATOM     16  C   UNL     1       3.348   5.250   0.000  0.00  0.00    +0.008 A 
ENDBRANCH  10  11
ENDBRANCH   4   6
BRANCH  22  24
ATOM     24  C   UNL     1      16.339   8.250   0.000  0.00  0.00    +0.035 A 
ATOM     25  C   UNL     1      17.637   7.500   0.000  0.00  0.00    +0.031 A 
ATOM     26  C   UNL     1      18.936   8.250   0.000  0.00  0.00    -0.016 A 
ATOM     33  C   UNL     1      18.936   9.750   0.000  0.00  0.00    +0.008 A 
ATOM     34  C   UNL     1      17.637  10.500   0.000  0.00  0.00    +0.002 A 
ATOM     35  C   UNL     1      16.338   9.750   0.000  0.00  0.00    +0.023 A 
BRANCH  26  27
ATOM     27  C   UNL     1      20.236   7.500   0.000  0.00  0.00    -0.018 A 
ATOM     28  C   UNL     1      20.236   6.000   0.000  0.00  0.00    +0.008 A 
ATOM     29  C   UNL     1      21.535   5.250   0.000  0.00  0.00    +0.001 A 
ATOM     30  C   UNL     1      22.834   6.000   0.000  0.00  0.00    +0.000 A 
ATOM     31  C   UNL     1      22.834   7.500   0.000  0.00  0.00    +0.001 A 
ATOM     32  C   UNL     1      21.535   8.250   0.000  0.00  0.00    +0.008 A 
ENDBRANCH  26  27
ENDBRANCH  22  24
TORSDOF 4