REMARK  Name = 37612
REMARK  3 active torsions:
REMARK  status: ('A' for Active; 'I' for Inactive)
REMARK    1  A    between atoms: C_8  and  O_19
REMARK    2  A    between atoms: C_9  and  C_11
REMARK    3  A    between atoms: C_13  and  N_20
REMARK                            x       y       z     vdW  Elec       q    Type
REMARK                         _______ _______ _______ _____ _____    ______ ____
ROOT
ATOM      1  C   UNL     1      -1.674   5.899   0.000  0.00  0.00    +0.001 A 
ATOM      2  C   UNL     1      -0.375   6.649   0.000  0.00  0.00    +0.008 A 
ATOM      3  C   UNL     1       0.924   5.899   0.000  0.00  0.00    -0.017 A 
ATOM      4  C   UNL     1       2.223   6.649   0.000  0.00  0.00    +0.025 A 
ATOM      5  C   UNL     1       3.522   5.899   0.000  0.00  0.00    +0.079 A 
ATOM     16  C   UNL     1       3.522   4.399   0.000  0.00  0.00    +0.130 A 
ATOM     19  C   UNL     1       2.223   3.650   0.000  0.00  0.00    +0.054 A 
ATOM     20  C   UNL     1       0.924   4.399   0.000  0.00  0.00    -0.014 A 
ATOM     21  C   UNL     1      -0.375   3.650   0.000  0.00  0.00    +0.008 A 
ATOM     22  C   UNL     1      -1.674   4.399   0.000  0.00  0.00    +0.001 A 
ENDROOT
BRANCH   5   6
ATOM      6  C   UNL     1       4.821   6.649   0.000  0.00  0.00    +0.248 C 
ATOM      7  N   UNL     1       6.120   5.899   0.000  0.00  0.00    -0.308 N 
ATOM      8  H   UNL     1       6.120   4.915   0.000  0.00  0.00    +0.149 HD
ATOM     15  O   UNL     1       4.821   8.149   0.000  0.00  0.00    -0.270 OA
BRANCH   7   9
ATOM      9  C   UNL     1       7.419   6.649   0.000  0.00  0.00    +0.073 C 
ATOM     10  C   UNL     1       7.419   8.149   0.000  0.00  0.00    +0.022 C 
ATOM     11  C   UNL     1       8.718   8.899   0.000  0.00  0.00    +0.002 C 
ATOM     12  C   UNL     1      10.017   8.149   0.000  0.00  0.00    +0.000 C 
ATOM     13  C   UNL     1      10.017   6.649   0.000  0.00  0.00    +0.002 C 
ATOM     14  C   UNL     1       8.718   5.899   0.000  0.00  0.00    +0.022 C 
ENDBRANCH   7   9
ENDBRANCH   5   6
BRANCH  16  17
ATOM     17  O   UNL     1       4.821   3.650   0.000  0.00  0.00    -0.506 OA
ATOM     18  H   UNL     1       4.821   2.713   0.000  0.00  0.00    +0.292 HD
ENDBRANCH  16  17
TORSDOF 3