REMARK  Name = 372287
REMARK  5 active torsions:
REMARK  status: ('A' for Active; 'I' for Inactive)
REMARK    1  A    between atoms: C_5  and  C_7
REMARK    2  A    between atoms: C_6  and  O_21
REMARK    3  A    between atoms: C_9  and  O_23
REMARK    4  A    between atoms: C_20  and  N_24
REMARK    5  A    between atoms: O_21  and  C_22
REMARK                            x       y       z     vdW  Elec       q    Type
REMARK                         _______ _______ _______ _____ _____    ______ ____
ROOT
ATOM      8  C   UNL     1       5.250   3.750   0.000  0.00  0.00    +0.276 C 
ATOM      9  O   UNL     1       6.132   2.537   0.000  0.00  0.00    -0.459 OA
ATOM     10  C   UNL     1       7.558   3.000   0.000  0.00  0.00    +0.244 A 
ATOM     11  N   UNL     1       8.857   2.250   0.000  0.00  0.00    -0.209 NA
ATOM     12  C   UNL     1      10.156   3.000   0.000  0.00  0.00    +0.097 A 
ATOM     13  C   UNL     1      11.455   2.250   0.000  0.00  0.00    +0.114 A 
ATOM     14  C   UNL     1      12.754   3.000   0.000  0.00  0.00    +0.275 A 
ATOM     18  C   UNL     1      12.754   4.500   0.000  0.00  0.00    +0.086 A 
ATOM     19  C   UNL     1      11.455   5.250   0.000  0.00  0.00    +0.034 A 
ATOM     20  C   UNL     1      10.156   4.500   0.000  0.00  0.00    +0.066 A 
ATOM     21  N   UNL     1       8.857   5.250   0.000  0.00  0.00    -0.347 N 
ATOM     22  H   UNL     1       8.857   6.750   0.000  0.00  0.00    +0.166 HD
ATOM     23  C   UNL     1       7.558   4.500   0.000  0.00  0.00    +0.144 A 
ATOM     24  C   UNL     1       6.132   4.963   0.000  0.00  0.00    +0.168 C 
ENDROOT
BRANCH   8   7
ATOM      1  C   UNL     1       1.500   5.049   0.000  0.00  0.00    +0.001 A 
ATOM      2  C   UNL     1       0.750   3.750   0.000  0.00  0.00    +0.004 A 
ATOM      3  C   UNL     1       1.500   2.451   0.000  0.00  0.00    +0.046 A 
ATOM      4  C   UNL     1       3.000   2.451   0.000  0.00  0.00    +0.127 A 
ATOM      7  C   UNL     1       3.750   3.750   0.000  0.00  0.00    +0.042 A 
ATOM     27  C   UNL     1       3.000   5.049   0.000  0.00  0.00    +0.011 A 
BRANCH   4   5
ATOM      5  O   UNL     1       3.750   1.152   0.000  0.00  0.00    -0.495 OA
ATOM      6  C   UNL     1       5.250   1.152   0.000  0.00  0.00    +0.277 C 
ENDBRANCH   4   5
ENDBRANCH   8   7
BRANCH  14  15
ATOM     15  N   UNL     1      14.054   2.250   0.000  0.00  0.00    +0.080 N 
ATOM     16  O   UNL     1      14.054   0.750   0.000  0.00  0.00    +0.041 OA
ATOM     17  O   UNL     1      15.352   3.000   0.000  0.00  0.00    -0.576 OA
ENDBRANCH  14  15
BRANCH  24  25
ATOM     25  O   UNL     1       5.668   6.390   0.000  0.00  0.00    -0.505 OA
ATOM     26  H   UNL     1       6.295   7.086   0.000  0.00  0.00    +0.292 HD
ENDBRANCH  24  25
TORSDOF 4