REMARK  Name = 372275
REMARK  6 active torsions:
REMARK  status: ('A' for Active; 'I' for Inactive)
REMARK    1  A    between atoms: C_2  and  O_21
REMARK    2  A    between atoms: C_5  and  C_7
REMARK    3  A    between atoms: C_8  and  O_23
REMARK    4  A    between atoms: C_19  and  C_25
REMARK    5  A    between atoms: C_20  and  C_24
REMARK    6  A    between atoms: O_21  and  C_22
REMARK                            x       y       z     vdW  Elec       q    Type
REMARK                         _______ _______ _______ _____ _____    ______ ____
ROOT
ATOM      8  C   UNL     1       5.370   5.699   0.000  0.00  0.00    +0.272 C 
ATOM      9  O   UNL     1       6.740   5.088   0.000  0.00  0.00    -0.459 OA
ATOM     10  C   UNL     1       7.744   6.203   0.000  0.00  0.00    +0.244 A 
ATOM     11  N   UNL     1       9.244   6.203   0.000  0.00  0.00    -0.210 NA
ATOM     12  C   UNL     1       9.994   7.502   0.000  0.00  0.00    +0.091 A 
ATOM     13  C   UNL     1      11.494   7.502   0.000  0.00  0.00    +0.033 A 
ATOM     14  C   UNL     1      12.244   8.801   0.000  0.00  0.00    -0.045 A 
ATOM     15  C   UNL     1      13.744   8.801   0.000  0.00  0.00    +0.044 C 
ATOM     16  C   UNL     1      11.494  10.100   0.000  0.00  0.00    -0.045 A 
ATOM     17  C   UNL     1      12.244  11.399   0.000  0.00  0.00    +0.044 C 
ATOM     18  C   UNL     1       9.994  10.100   0.000  0.00  0.00    +0.031 A 
ATOM     19  C   UNL     1       9.244   8.801   0.000  0.00  0.00    +0.066 A 
ATOM     20  N   UNL     1       7.744   8.801   0.000  0.00  0.00    -0.347 N 
ATOM     21  H   UNL     1       6.994  10.100   0.000  0.00  0.00    +0.166 HD
ATOM     22  C   UNL     1       6.994   7.502   0.000  0.00  0.00    +0.144 A 
ATOM     23  C   UNL     1       5.527   7.190   0.000  0.00  0.00    +0.168 C 
ENDROOT
BRANCH   8   7
ATOM      1  C   UNL     1       1.473   4.949   0.000  0.00  0.00    +0.046 A 
ATOM      2  C   UNL     1       1.473   3.449   0.000  0.00  0.00    +0.120 A 
ATOM      5  C   UNL     1       2.772   2.699   0.000  0.00  0.00    +0.046 A 
ATOM      6  C   UNL     1       4.071   3.449   0.000  0.00  0.00    +0.011 A 
ATOM      7  C   UNL     1       4.071   4.949   0.000  0.00  0.00    +0.000 A 
ATOM     26  C   UNL     1       2.772   5.699   0.000  0.00  0.00    +0.011 A 
BRANCH   2   3
ATOM      3  O   UNL     1       0.174   2.699   0.000  0.00  0.00    -0.495 OA
ATOM      4  C   UNL     1      -1.125   3.449   0.000  0.00  0.00    +0.277 C 
ENDBRANCH   2   3
ENDBRANCH   8   7
BRANCH  23  24
ATOM     24  O   UNL     1       4.412   8.194   0.000  0.00  0.00    -0.505 OA
ATOM     25  H   UNL     1       4.607   9.111   0.000  0.00  0.00    +0.292 HD
ENDBRANCH  23  24
TORSDOF 3