REMARK  Name = 37168
REMARK  4 active torsions:
REMARK  status: ('A' for Active; 'I' for Inactive)
REMARK    1  A    between atoms: C_3  and  O_19
REMARK    2  A    between atoms: C_8  and  C_17
REMARK    3  A    between atoms: C_12  and  N_20
REMARK    4  A    between atoms: C_15  and  N_21
REMARK                            x       y       z     vdW  Elec       q    Type
REMARK                         _______ _______ _______ _____ _____    ______ ____
ROOT
ATOM      6  C   UNL     1      -8.899   3.522   0.000  0.00  0.00    +0.252 C 
ATOM      7  N   UNL     1      -8.149   2.223   0.000  0.00  0.00    -0.281 N 
ATOM      8  H   UNL     1      -8.642   1.370   0.000  0.00  0.00    +0.155 HD
ATOM     18  O   UNL     1     -10.400   3.522   0.000  0.00  0.00    -0.270 OA
ENDROOT
BRANCH   6   5
ATOM      1  C   UNL     1      -8.149   7.419   0.000  0.00  0.00    +0.054 A 
ATOM      2  C   UNL     1      -6.649   7.419   0.000  0.00  0.00    -0.014 A 
ATOM      3  C   UNL     1      -5.899   6.120   0.000  0.00  0.00    -0.017 A 
ATOM      4  C   UNL     1      -6.649   4.821   0.000  0.00  0.00    +0.025 A 
ATOM      5  C   UNL     1      -8.149   4.821   0.000  0.00  0.00    +0.079 A 
ATOM     19  C   UNL     1      -4.399   6.120   0.000  0.00  0.00    +0.008 A 
ATOM     20  C   UNL     1      -3.650   7.419   0.000  0.00  0.00    +0.001 A 
ATOM     21  C   UNL     1      -4.399   8.718   0.000  0.00  0.00    +0.001 A 
ATOM     22  C   UNL     1      -5.899   8.718   0.000  0.00  0.00    +0.008 A 
ATOM     23  C   UNL     1      -8.899   6.120   0.000  0.00  0.00    +0.130 A 
BRANCH  23  24
ATOM     24  O   UNL     1     -10.400   6.120   0.000  0.00  0.00    -0.506 OA
ATOM     25  H   UNL     1     -10.868   6.932   0.000  0.00  0.00    +0.292 HD
ENDBRANCH  23  24
ENDBRANCH   6   5
BRANCH   7   9
ATOM      9  C   UNL     1      -6.649   2.223   0.000  0.00  0.00    +0.040 A 
ATOM     10  C   UNL     1      -5.899   0.924   0.000  0.00  0.00    +0.107 A 
ATOM     11  C   UNL     1      -4.399   0.924   0.000  0.00  0.00    +0.275 A 
ATOM     15  C   UNL     1      -3.650   2.223   0.000  0.00  0.00    +0.084 A 
ATOM     16  C   UNL     1      -4.399   3.522   0.000  0.00  0.00    +0.008 A 
ATOM     17  C   UNL     1      -5.899   3.522   0.000  0.00  0.00    +0.024 A 
BRANCH  11  12
ATOM     12  N   UNL     1      -3.650  -0.375   0.000  0.00  0.00    +0.080 N 
ATOM     13  O   UNL     1      -4.399  -1.674   0.000  0.00  0.00    +0.041 OA
ATOM     14  O   UNL     1      -2.150  -0.375   0.000  0.00  0.00    -0.576 OA
ENDBRANCH  11  12
ENDBRANCH   7   9
TORSDOF 4