REMARK  Name = 37955
REMARK  10 active torsions:
REMARK  status: ('A' for Active; 'I' for Inactive)
REMARK    1  A    between atoms: C_1  and  C_10
REMARK    2  A    between atoms: C_3  and  O_13
REMARK    3  A    between atoms: C_4  and  C_16
REMARK    4  A    between atoms: C_5  and  C_7
REMARK    5  A    between atoms: C_7  and  C_8
REMARK    6  A    between atoms: C_8  and  C_9
REMARK    7  A    between atoms: C_10  and  C_11
REMARK    8  A    between atoms: C_11  and  C_12
REMARK    9  A    between atoms: O_13  and  C_14
REMARK   10  A    between atoms: C_14  and  C_15
REMARK                            x       y       z     vdW  Elec       q    Type
REMARK                         _______ _______ _______ _____ _____    ______ ____
ROOT
ATOM      1  C   UNL     1      -7.245  -3.000   0.000  0.00  0.00    -0.005 A 
ATOM      5  C   UNL     1      -8.544  -3.750   0.000  0.00  0.00    +0.011 A 
ATOM      6  C   UNL     1      -8.544  -5.250   0.000  0.00  0.00    -0.046 A 
ATOM     10  C   UNL     1      -7.245  -6.000   0.000  0.00  0.00    +0.020 A 
ATOM     11  C   UNL     1      -5.946  -5.250   0.000  0.00  0.00    +0.079 A 
ATOM     17  C   UNL     1      -5.946  -3.750   0.000  0.00  0.00    +0.136 A 
ENDROOT
BRANCH  11  12
ATOM     12  C   UNL     1      -4.647  -6.000   0.000  0.00  0.00    +0.245 C 
ATOM     13  N   UNL     1      -4.647  -7.500   0.000  0.00  0.00    -0.325 N 
ATOM     14  H   UNL     1      -3.794  -7.992   0.000  0.00  0.00    +0.145 HD
ATOM     15  H   UNL     1      -5.500  -7.992   0.000  0.00  0.00    +0.145 HD
ATOM     16  O   UNL     1      -3.348  -5.250   0.000  0.00  0.00    -0.270 OA
ENDBRANCH  11  12
BRANCH   1   2
ATOM      2  C   UNL     1      -7.245  -1.500   0.000  0.00  0.00    +0.038 C 
BRANCH   2   3
ATOM      3  C   UNL     1      -8.544  -0.750   0.000  0.00  0.00    +0.001 C 
ATOM      4  C   UNL     1      -9.843  -1.500   0.000  0.00  0.00    +0.004 C 
ENDBRANCH   2   3
ENDBRANCH   1   2
BRANCH   6   7
ATOM      7  C   UNL     1      -9.843  -6.000   0.000  0.00  0.00    +0.035 C 
BRANCH   7   8
ATOM      8  C   UNL     1     -11.142  -5.250   0.000  0.00  0.00    +0.001 C 
ATOM      9  C   UNL     1     -12.441  -6.000   0.000  0.00  0.00    +0.004 C 
ENDBRANCH   7   8
ENDBRANCH   6   7
BRANCH  17  18
ATOM     18  O   UNL     1      -4.647  -3.000   0.000  0.00  0.00    -0.487 OA
BRANCH  18  19
ATOM     19  C   UNL     1      -3.348  -3.750   0.000  0.00  0.00    +0.256 C 
BRANCH  19  20
ATOM     20  C   UNL     1      -2.049  -3.000   0.000  0.00  0.00    +0.006 C 
ATOM     21  C   UNL     1      -0.750  -3.750   0.000  0.00  0.00    +0.007 C 
ENDBRANCH  19  20
ENDBRANCH  18  19
ENDBRANCH  17  18
TORSDOF 8