REMARK  Name = 375392
REMARK  3 active torsions:
REMARK  status: ('A' for Active; 'I' for Inactive)
REMARK    1  A    between atoms: C_1  and  C_8
REMARK    2  A    between atoms: C_6  and  C_7
REMARK    3  A    between atoms: N_10  and  C_11
REMARK                            x       y       z     vdW  Elec       q    Type
REMARK                         _______ _______ _______ _____ _____    ______ ____
ROOT
ATOM      6  C   UNL     1       6.750   3.348   0.000  0.00  0.00    +0.315 C 
ATOM      7  N   UNL     1       7.500   2.049   0.000  0.00  0.00    -0.201 N 
ATOM      8  H   UNL     1       7.008   1.196   0.000  0.00  0.00    +0.298 HD
ATOM     15  N   UNL     1       7.500   4.647   0.000  0.00  0.00    -0.099 NA
ATOM     16  H   UNL     1       8.484   4.647   0.000  0.00  0.00    +0.363 HD
ENDROOT
BRANCH   6   5
ATOM      1  C   UNL     1       2.250   3.348   0.000  0.00  0.00    -0.050 A 
ATOM      2  C   UNL     1       0.750   3.348   0.000  0.00  0.00    +0.044 C 
ATOM      3  C   UNL     1       3.000   2.049   0.000  0.00  0.00    +0.004 A 
ATOM      4  C   UNL     1       4.500   2.049   0.000  0.00  0.00    +0.016 A 
ATOM      5  C   UNL     1       5.250   3.348   0.000  0.00  0.00    +0.065 A 
ATOM     17  C   UNL     1       4.500   4.647   0.000  0.00  0.00    +0.016 A 
ATOM     18  C   UNL     1       3.000   4.647   0.000  0.00  0.00    +0.004 A 
ENDBRANCH   6   5
BRANCH   7   9
ATOM      9  C   UNL     1       9.000   2.049   0.000  0.00  0.00    +0.119 A 
ATOM     10  C   UNL     1       9.750   0.750   0.000  0.00  0.00    +0.049 A 
ATOM     11  C   UNL     1      11.250   0.750   0.000  0.00  0.00    +0.004 A 
ATOM     12  C   UNL     1      12.000   2.049   0.000  0.00  0.00    +0.000 A 
ATOM     13  C   UNL     1      11.250   3.348   0.000  0.00  0.00    +0.004 A 
ATOM     14  C   UNL     1       9.750   3.348   0.000  0.00  0.00    +0.049 A 
ENDBRANCH   7   9
TORSDOF 2