REMARK  Name = 379536
REMARK  5 active torsions:
REMARK  status: ('A' for Active; 'I' for Inactive)
REMARK    1  A    between atoms: C_2  and  C_5
REMARK    2  A    between atoms: C_10  and  N_16
REMARK    3  A    between atoms: C_12  and  C_17
REMARK    4  A    between atoms: C_14  and  C_17
REMARK    5  A    between atoms: N_15  and  O_19
REMARK                            x       y       z     vdW  Elec       q    Type
REMARK                         _______ _______ _______ _____ _____    ______ ____
ROOT
ATOM      6  N   UNL     1       6.750   3.348   0.000  0.00  0.00    -0.284 N 
ATOM      7  H   UNL     1       7.242   2.495   0.000  0.00  0.00    +0.155 HD
ATOM      8  C   UNL     1       7.500   4.647   0.000  0.00  0.00    +0.229 C 
ATOM     17  O   UNL     1       6.750   5.946   0.000  0.00  0.00    -0.275 OA
ENDROOT
BRANCH   6   5
ATOM      3  C   UNL     1       3.000   4.647   0.000  0.00  0.00    +0.057 A 
ATOM      4  C   UNL     1       4.500   4.647   0.000  0.00  0.00    +0.037 A 
ATOM      5  C   UNL     1       5.250   3.348   0.000  0.00  0.00    +0.052 A 
ATOM     18  C   UNL     1       4.500   2.049   0.000  0.00  0.00    +0.062 A 
ATOM     19 CL   UNL     1       5.250   0.750   0.000  0.00  0.00    -0.082 Cl
ATOM     20  C   UNL     1       3.000   2.049   0.000  0.00  0.00    +0.022 A 
ATOM     21  C   UNL     1       2.250   3.348   0.000  0.00  0.00    +0.014 A 
BRANCH   3   2
ATOM      1  F   UNL     1       0.750   5.946   0.000  0.00  0.00    -0.166 F 
ATOM      2  C   UNL     1       2.250   5.946   0.000  0.00  0.00    +0.417 C 
ATOM     22  F   UNL     1       3.000   7.245   0.000  0.00  0.00    -0.166 F 
ATOM     23  F   UNL     1       1.500   7.245   0.000  0.00  0.00    -0.166 F 
ENDBRANCH   3   2
ENDBRANCH   6   5
BRANCH   8   9
ATOM      9  C   UNL     1       9.000   4.647   0.000  0.00  0.00    +0.228 C 
BRANCH   9  10
ATOM     10  C   UNL     1       9.750   5.946   0.000  0.00  0.00    +0.340 C 
ATOM     11  N   UNL     1       9.000   7.245   0.000  0.00  0.00    -0.247 N 
ATOM     12  H   UNL     1       8.016   7.245   0.000  0.00  0.00    +0.288 HD
ATOM     13  H   UNL     1       9.492   8.098   0.000  0.00  0.00    +0.288 HD
ATOM     14  N   UNL     1      11.250   5.946   0.000  0.00  0.00    +0.146 NA
BRANCH  14  15
ATOM     15  O   UNL     1      12.000   7.245   0.000  0.00  0.00    -0.311 OA
ATOM     16  H   UNL     1      12.937   7.245   0.000  0.00  0.00    +0.361 HD
ENDBRANCH  14  15
ENDBRANCH   9  10
ENDBRANCH   8   9
TORSDOF 5