REMARK  Name = 379388
REMARK  9 active torsions:
REMARK  status: ('A' for Active; 'I' for Inactive)
REMARK    1  A    between atoms: O_1  and  C_2
REMARK    2  A    between atoms: O_1  and  C_22
REMARK    3  A    between atoms: O_3  and  C_4
REMARK    4  A    between atoms: O_3  and  C_23
REMARK    5  A    between atoms: C_8  and  C_24
REMARK    6  A    between atoms: C_9  and  C_24
REMARK    7  A    between atoms: N_13  and  C_14
REMARK    8  A    between atoms: C_20  and  S_21
REMARK    9  A    between atoms: S_21  and  C_25
REMARK                            x       y       z     vdW  Elec       q    Type
REMARK                         _______ _______ _______ _____ _____    ______ ____
ROOT
ATOM      8  C   UNL     1       8.250   5.052   0.000  0.00  0.00    +0.143 A 
ATOM      9  N   UNL     1       9.742   5.209   0.000  0.00  0.00    -0.274 N 
ATOM     17  C   UNL     1      10.054   6.676   0.000  0.00  0.00    +0.196 A 
ATOM     20  N   UNL     1       8.755   7.426   0.000  0.00  0.00    -0.122 NA
ATOM     21  N   UNL     1       7.640   6.422   0.000  0.00  0.00    -0.133 NA
ENDROOT
BRANCH   9  10
ATOM     10  C   UNL     1      10.746   4.094   0.000  0.00  0.00    +0.050 A 
ATOM     11  C   UNL     1      12.213   4.406   0.000  0.00  0.00    +0.029 A 
ATOM     12  C   UNL     1      13.216   3.291   0.000  0.00  0.00    +0.040 A 
ATOM     13  C   UNL     1      12.753   1.865   0.000  0.00  0.00    +0.124 A 
ATOM     14  F   UNL     1      13.757   0.750   0.000  0.00  0.00    -0.205 F 
ATOM     15  C   UNL     1      11.286   1.553   0.000  0.00  0.00    +0.040 A 
ATOM     16  C   UNL     1      10.282   2.668   0.000  0.00  0.00    +0.029 A 
ENDBRANCH   9  10
BRANCH  17  18
ATOM     18  S   UNL     1      11.424   7.286   0.000  0.00  0.00    -0.089 S 
ATOM     19  C   UNL     1      11.581   8.778   0.000  0.00  0.00    +0.093 C 
ENDBRANCH  17  18
BRANCH   8   7
ATOM      7  C   UNL     1       7.500   3.753   0.000  0.00  0.00    +0.112 C 
BRANCH   7   6
ATOM      3  C   UNL     1       3.000   3.753   0.000  0.00  0.00    +0.161 A 
ATOM      4  C   UNL     1       3.750   2.454   0.000  0.00  0.00    +0.162 A 
ATOM      5  C   UNL     1       5.250   2.454   0.000  0.00  0.00    +0.053 A 
ATOM      6  C   UNL     1       6.000   3.753   0.000  0.00  0.00    -0.036 A 
ATOM     22  C   UNL     1       5.250   5.052   0.000  0.00  0.00    +0.008 A 
ATOM     25  C   UNL     1       3.750   5.052   0.000  0.00  0.00    +0.049 A 
BRANCH   3   1
ATOM      1  O   UNL     1       1.500   3.753   0.000  0.00  0.00    -0.491 OA
ATOM      2  C   UNL     1       0.750   5.052   0.000  0.00  0.00    +0.277 C 
ENDBRANCH   3   1
BRANCH   4  23
ATOM     23  O   UNL     1       3.000   1.155   0.000  0.00  0.00    -0.491 OA
ATOM     24  C   UNL     1       1.500   1.155   0.000  0.00  0.00    +0.277 C 
ENDBRANCH   4  23
ENDBRANCH   7   6
ENDBRANCH   8   7
TORSDOF 6