REMARK  Name = 379538
REMARK  4 active torsions:
REMARK  status: ('A' for Active; 'I' for Inactive)
REMARK    1  A    between atoms: C_1  and  C_19
REMARK    2  A    between atoms: C_6  and  C_11
REMARK    3  A    between atoms: C_9  and  S_12
REMARK    4  A    between atoms: S_12  and  C_21
REMARK                            x       y       z     vdW  Elec       q    Type
REMARK                         _______ _______ _______ _____ _____    ______ ____
ROOT
ATOM      1  C   UNL     1      -1.931 -10.845   0.000  0.00  0.00    +0.113 A 
ATOM      4  C   UNL     1      -1.931 -12.345   0.000  0.00  0.00    +0.136 A 
ATOM      5  N   UNL     1      -0.632 -13.095   0.000  0.00  0.00    -0.229 NA
ATOM      6  C   UNL     1       0.667 -12.345   0.000  0.00  0.00    +0.185 A 
ATOM      9  N   UNL     1       0.667 -10.845   0.000  0.00  0.00    -0.232 N 
ATOM     10  N   UNL     1       1.782  -9.841   0.000  0.00  0.00    -0.197 N 
ATOM     11  H   UNL     1       3.249 -10.153   0.000  0.00  0.00    +0.150 HD
ATOM     12  C   UNL     1       1.172  -8.471   0.000  0.00  0.00    +0.224 C 
ATOM     20  N   UNL     1      -0.320  -8.627   0.000  0.00  0.00    -0.239 NA
ATOM     21  C   UNL     1      -0.632 -10.095   0.000  0.00  0.00    +0.166 A 
ENDROOT
BRANCH  12  13
ATOM     13  C   UNL     1       1.922  -7.172   0.000  0.00  0.00    -0.007 A 
ATOM     14  C   UNL     1       3.422  -7.172   0.000  0.00  0.00    +0.008 A 
ATOM     15  C   UNL     1       4.172  -5.873   0.000  0.00  0.00    +0.020 A 
ATOM     16  C   UNL     1       3.422  -4.574   0.000  0.00  0.00    +0.041 A 
ATOM     17 CL   UNL     1       4.172  -3.275   0.000  0.00  0.00    -0.084 Cl
ATOM     18  C   UNL     1       1.922  -4.574   0.000  0.00  0.00    +0.020 A 
ATOM     19  C   UNL     1       1.172  -5.873   0.000  0.00  0.00    +0.008 A 
ENDBRANCH  12  13
BRANCH   1   2
ATOM      2  C   UNL     1      -3.230 -10.095   0.000  0.00  0.00    +0.104 C 
ATOM      3  N   UNL     1      -4.529  -9.345   0.000  0.00  0.00    -0.191 NA
ENDBRANCH   1   2
BRANCH   6   7
ATOM      7  S   UNL     1       1.966 -13.095   0.000  0.00  0.00    -0.090 S 
ATOM      8  C   UNL     1       3.265 -12.345   0.000  0.00  0.00    +0.093 C 
ENDBRANCH   6   7
TORSDOF 3