REMARK  Name = 374703
REMARK  4 active torsions:
REMARK  status: ('A' for Active; 'I' for Inactive)
REMARK    1  A    between atoms: C_5  and  O_7
REMARK    2  A    between atoms: O_7  and  P_9
REMARK    3  A    between atoms: P_9  and  C_10
REMARK    4  A    between atoms: P_9  and  C_16
REMARK                            x       y       z     vdW  Elec       q    Type
REMARK                         _______ _______ _______ _____ _____    ______ ____
ROOT
ATOM      7  P   UNL     1       2.826   6.998   0.000  0.00  0.00    +0.308 P 
ATOM     20  O   UNL     1       2.826   8.498   0.000  0.00  0.00    -0.267 OA
ENDROOT
BRANCH   7   8
ATOM      8  C   UNL     1       4.326   6.998   0.000  0.00  0.00    +0.052 A 
ATOM      9  C   UNL     1       5.076   5.699   0.000  0.00  0.00    +0.015 A 
ATOM     10  C   UNL     1       6.576   5.699   0.000  0.00  0.00    +0.001 A 
ATOM     11  C   UNL     1       7.326   6.998   0.000  0.00  0.00    +0.000 A 
ATOM     12  C   UNL     1       6.576   8.297   0.000  0.00  0.00    +0.001 A 
ATOM     13  C   UNL     1       5.076   8.297   0.000  0.00  0.00    +0.015 A 
ENDBRANCH   7   8
BRANCH   7  14
ATOM     14  C   UNL     1       2.826   5.498   0.000  0.00  0.00    +0.052 A 
ATOM     15  C   UNL     1       1.527   4.748   0.000  0.00  0.00    +0.015 A 
ATOM     16  C   UNL     1       1.527   3.248   0.000  0.00  0.00    +0.001 A 
ATOM     17  C   UNL     1       2.826   2.498   0.000  0.00  0.00    +0.000 A 
ATOM     18  C   UNL     1       4.125   3.248   0.000  0.00  0.00    +0.001 A 
ATOM     19  C   UNL     1       4.125   4.748   0.000  0.00  0.00    +0.015 A 
ENDBRANCH   7  14
BRANCH   7   6
ATOM      6  O   UNL     1       1.326   6.998   0.000  0.00  0.00    -0.441 OA
BRANCH   6   5
ATOM      1  C   UNL     1      -1.674   9.596   0.000  0.00  0.00    +0.008 C 
ATOM      2  C   UNL     1      -0.924  10.895   0.000  0.00  0.00    +0.005 C 
ATOM      3  C   UNL     1       0.576  10.895   0.000  0.00  0.00    +0.030 C 
ATOM      4  C   UNL     1       1.326   9.596   0.000  0.00  0.00    +0.014 C 
ATOM      5  C   UNL     1       0.576   8.297   0.000  0.00  0.00    +0.102 C 
ATOM     21  C   UNL     1      -0.924   8.297   0.000  0.00  0.00    +0.074 C 
ENDBRANCH   6   5
ENDBRANCH   7   6
TORSDOF 4