REMARK  Name = 136513
REMARK  10 active torsions:
REMARK  status: ('A' for Active; 'I' for Inactive)
REMARK    1  A    between atoms: C_8  and  C_27
REMARK    2  A    between atoms: C_12  and  C_27
REMARK    3  A    between atoms: C_13  and  C_23
REMARK    4  A    between atoms: C_15  and  C_23
REMARK    5  A    between atoms: C_18  and  O_29
REMARK    6  A    between atoms: C_19  and  O_21
REMARK    7  A    between atoms: C_20  and  O_25
REMARK    8  A    between atoms: O_21  and  C_22
REMARK    9  A    between atoms: O_25  and  C_26
REMARK   10  A    between atoms: O_29  and  C_30
REMARK                            x       y       z     vdW  Elec       q    Type
REMARK                         _______ _______ _______ _____ _____    ______ ____
ROOT
ATOM      1  O   UNL     1      -1.949   2.533   0.000  0.00  0.00    -0.470 OA
ATOM      2  C   UNL     1      -2.113   1.042   0.000  0.00  0.00    +0.207 A 
ATOM      3  C   UNL     1      -0.746   0.425   0.000  0.00  0.00    +0.071 A 
ATOM     18  C   UNL     1       0.263   1.535   0.000  0.00  0.00    +0.071 A 
ATOM     30  C   UNL     1      -0.480   2.838   0.000  0.00  0.00    +0.207 A 
ENDROOT
BRANCH   3   4
ATOM      4  C   UNL     1      -0.441  -1.044   0.000  0.00  0.00    +0.197 C 
ATOM      5  O   UNL     1       0.984  -1.514   0.000  0.00  0.00    -0.287 OA
BRANCH   4   6
ATOM      6  C   UNL     1      -1.560  -2.042   0.000  0.00  0.00    +0.030 A 
ATOM      7  C   UNL     1      -2.985  -1.572   0.000  0.00  0.00    +0.061 A 
ATOM      8  C   UNL     1      -4.104  -2.570   0.000  0.00  0.00    +0.166 A 
ATOM     11  C   UNL     1      -3.799  -4.039   0.000  0.00  0.00    +0.204 A 
ATOM     14  C   UNL     1      -2.375  -4.509   0.000  0.00  0.00    +0.166 A 
ATOM     17  C   UNL     1      -1.255  -3.511   0.000  0.00  0.00    +0.061 A 
BRANCH   8   9
ATOM      9  O   UNL     1      -5.528  -2.100   0.000  0.00  0.00    -0.491 OA
ATOM     10  C   UNL     1      -5.833  -0.631   0.000  0.00  0.00    +0.277 C 
ENDBRANCH   8   9
BRANCH  11  12
ATOM     12  O   UNL     1      -4.918  -5.037   0.000  0.00  0.00    -0.488 OA
ATOM     13  C   UNL     1      -4.613  -6.506   0.000  0.00  0.00    +0.277 C 
ENDBRANCH  11  12
BRANCH  14  15
ATOM     15  O   UNL     1      -2.070  -5.978   0.000  0.00  0.00    -0.491 OA
ATOM     16  C   UNL     1      -0.645  -6.448   0.000  0.00  0.00    +0.277 C 
ENDBRANCH  14  15
ENDBRANCH   4   6
ENDBRANCH   3   4
BRANCH  18  19
ATOM     19  C   UNL     1       1.754   1.371   0.000  0.00  0.00    +0.197 C 
ATOM     20  O   UNL     1       2.358  -0.002   0.000  0.00  0.00    -0.287 OA
BRANCH  19  21
ATOM     21  C   UNL     1       2.642   2.581   0.000  0.00  0.00    +0.026 A 
ATOM     22  C   UNL     1       4.133   2.417   0.000  0.00  0.00    +0.061 A 
ATOM     23  C   UNL     1       5.020   3.626   0.000  0.00  0.00    +0.167 A 
ATOM     24  C   UNL     1       4.417   5.000   0.000  0.00  0.00    +0.166 A 
ATOM     25  C   UNL     1       2.926   5.163   0.000  0.00  0.00    +0.050 A 
ATOM     26  O   UNL     1       5.536   5.998   0.000  0.00  0.00    -0.453 OA
ATOM     27  C   UNL     1       6.831   5.242   0.000  0.00  0.00    +0.466 C 
ATOM     28  O   UNL     1       6.513   3.776   0.000  0.00  0.00    -0.453 OA
ATOM     29  C   UNL     1       2.038   3.954   0.000  0.00  0.00    +0.015 A 
ENDBRANCH  19  21
ENDBRANCH  18  19
TORSDOF 7