REMARK  Name = 13800
REMARK  4 active torsions:
REMARK  status: ('A' for Active; 'I' for Inactive)
REMARK    1  A    between atoms: N_2  and  S_12
REMARK    2  A    between atoms: S_12  and  N_15
REMARK    3  A    between atoms: N_15  and  C_16
REMARK    4  A    between atoms: N_15  and  C_17
REMARK                            x       y       z     vdW  Elec       q    Type
REMARK                         _______ _______ _______ _____ _____    ______ ____
ROOT
ATOM      1  O   UNL     1      -3.538  -3.498   0.000  0.00  0.00    -0.268 OA
ATOM      2  C   UNL     1      -3.075  -4.924   0.000  0.00  0.00    +0.274 C 
ATOM      3  C   UNL     1      -3.956  -6.138   0.000  0.00  0.00    +0.051 A 
ATOM      4  C   UNL     1      -5.448  -6.295   0.000  0.00  0.00    +0.014 A 
ATOM      5  C   UNL     1      -6.058  -7.665   0.000  0.00  0.00    +0.001 A 
ATOM      6  C   UNL     1      -5.176  -8.878   0.000  0.00  0.00    +0.001 A 
ATOM      7  C   UNL     1      -3.685  -8.722   0.000  0.00  0.00    +0.014 A 
ATOM      8  C   UNL     1      -3.075  -7.351   0.000  0.00  0.00    +0.051 A 
ATOM      9  C   UNL     1      -1.648  -6.888   0.000  0.00  0.00    +0.274 C 
ATOM     10  O   UNL     1      -0.434  -7.769   0.000  0.00  0.00    -0.268 OA
ATOM     11  N   UNL     1      -1.648  -5.388   0.000  0.00  0.00    -0.088 N 
ENDROOT
BRANCH  11  12
ATOM     12  S   UNL     1      -0.434  -4.506   0.000  0.00  0.00    +0.123 S 
ATOM     16  O   UNL     1       0.447  -5.720   0.000  0.00  0.00    -0.137 OA
ATOM     17  O   UNL     1      -1.316  -3.293   0.000  0.00  0.00    -0.137 OA
BRANCH  12  13
ATOM     13  N   UNL     1       0.779  -3.624   0.000  0.00  0.00    -0.169 NA
ATOM     14  C   UNL     1       0.622  -2.132   0.000  0.00  0.00    +0.132 C 
ATOM     15  C   UNL     1       2.149  -4.234   0.000  0.00  0.00    +0.132 C 
ENDBRANCH  12  13
ENDBRANCH  11  12
TORSDOF 2