REMARK  Name = 14304
REMARK  5 active torsions:
REMARK  status: ('A' for Active; 'I' for Inactive)
REMARK    1  A    between atoms: N_2  and  C_13
REMARK    2  A    between atoms: N_4  and  C_14
REMARK    3  A    between atoms: C_11  and  C_15
REMARK    4  A    between atoms: C_15  and  C_16
REMARK    5  A    between atoms: C_16  and  C_17
REMARK                            x       y       z     vdW  Elec       q    Type
REMARK                         _______ _______ _______ _____ _____    ______ ____
ROOT
ATOM      1  O   UNL     1       0.750   2.250   0.000  0.00  0.00    -0.246 OA
ATOM      2  C   UNL     1       2.049   3.000   0.000  0.00  0.00    +0.333 A 
ATOM      3  N   UNL     1       3.348   2.250   0.000  0.00  0.00    -0.280 N 
ATOM      4  C   UNL     1       3.348   0.750   0.000  0.00  0.00    +0.155 C 
ATOM      5  C   UNL     1       4.647   3.000   0.000  0.00  0.00    +0.168 A 
ATOM      6  C   UNL     1       4.647   4.500   0.000  0.00  0.00    +0.149 A 
ATOM      7  C   UNL     1       3.348   5.250   0.000  0.00  0.00    +0.282 A 
ATOM      8  O   UNL     1       3.348   6.750   0.000  0.00  0.00    -0.265 OA
ATOM      9  N   UNL     1       6.074   4.963   0.000  0.00  0.00    -0.336 N 
ATOM     10  C   UNL     1       6.955   3.750   0.000  0.00  0.00    +0.110 A 
ATOM     14  H   UNL     1       6.537   6.390   0.000  0.00  0.00    +0.167 HD
ATOM     15  N   UNL     1       6.074   2.537   0.000  0.00  0.00    -0.214 NA
ATOM     16  N   UNL     1       2.049   4.500   0.000  0.00  0.00    -0.262 N 
ATOM     17  C   UNL     1       0.750   5.250   0.000  0.00  0.00    +0.157 C 
ENDROOT
BRANCH  10  11
ATOM     11  C   UNL     1       8.455   3.750   0.000  0.00  0.00    +0.074 C 
BRANCH  11  12
ATOM     12  C   UNL     1       9.205   2.451   0.000  0.00  0.00    +0.004 C 
ATOM     13  C   UNL     1      10.705   2.451   0.000  0.00  0.00    +0.004 C 
ENDBRANCH  11  12
ENDBRANCH  10  11
TORSDOF 2