REMARK  Name = 13653
REMARK  1 active torsions:
REMARK  status: ('A' for Active; 'I' for Inactive)
REMARK    1  A    between atoms: C_9  and  C_16
REMARK                            x       y       z     vdW  Elec       q    Type
REMARK                         _______ _______ _______ _____ _____    ______ ____
ROOT
ATOM      6  C   UNL     1      -2.397  -8.534   0.000  0.00  0.00    -0.021 A 
ATOM      7  C   UNL     1      -3.007  -9.905   0.000  0.00  0.00    +0.057 A 
ATOM      8  C   UNL     1      -2.125 -11.118   0.000  0.00  0.00    +0.167 A 
ATOM      9  C   UNL     1      -0.633 -10.961   0.000  0.00  0.00    +0.166 A 
ATOM     10  C   UNL     1      -0.023  -9.591   0.000  0.00  0.00    +0.050 A 
ATOM     11  O   UNL     1      -0.023 -12.332   0.000  0.00  0.00    -0.453 OA
ATOM     12  C   UNL     1      -1.138 -13.335   0.000  0.00  0.00    +0.466 C 
ATOM     13  O   UNL     1      -2.437 -12.585   0.000  0.00  0.00    -0.453 OA
ATOM     14  C   UNL     1      -0.905  -8.377   0.000  0.00  0.00    +0.012 A 
ENDROOT
BRANCH   6   5
ATOM      1  O   UNL     1      -7.144  -6.973   0.000  0.00  0.00    -0.461 OA
ATOM      2  C   UNL     1      -6.987  -8.465   0.000  0.00  0.00    +0.237 C 
ATOM      3  C   UNL     1      -5.520  -8.777   0.000  0.00  0.00    +0.083 C 
ATOM      4  C   UNL     1      -4.770  -7.478   0.000  0.00  0.00    +0.040 C 
ATOM      5  C   UNL     1      -3.279  -7.321   0.000  0.00  0.00    +0.018 C 
ATOM     15  C   UNL     1      -5.774  -6.363   0.000  0.00  0.00    +0.335 C 
ATOM     16  O   UNL     1      -5.462  -4.896   0.000  0.00  0.00    -0.245 OA
ENDBRANCH   6   5
TORSDOF 1