REMARK  Name = 139021
REMARK  3 active torsions:
REMARK  status: ('A' for Active; 'I' for Inactive)
REMARK    1  A    between atoms: N_2  and  C_7
REMARK    2  A    between atoms: N_3  and  C_8
REMARK    3  A    between atoms: C_10  and  O_18
REMARK                            x       y       z     vdW  Elec       q    Type
REMARK                         _______ _______ _______ _____ _____    ______ ____
ROOT
ATOM      8  C   UNL     1      -3.785  -4.551   0.000  0.00  0.00    +0.135 A 
ATOM      9  C   UNL     1      -5.084  -5.301   0.000  0.00  0.00    +0.013 A 
ATOM     10  C   UNL     1      -6.383  -4.551   0.000  0.00  0.00    +0.011 A 
ATOM     11  C   UNL     1      -7.682  -5.301   0.000  0.00  0.00    +0.001 A 
ATOM     12  C   UNL     1      -7.682  -6.801   0.000  0.00  0.00    +0.001 A 
ATOM     13  C   UNL     1      -6.383  -7.551   0.000  0.00  0.00    +0.008 A 
ATOM     14  C   UNL     1      -5.084  -6.801   0.000  0.00  0.00    -0.016 A 
ATOM     15  C   UNL     1      -3.785  -7.551   0.000  0.00  0.00    +0.012 A 
ATOM     16  C   UNL     1      -2.486  -6.801   0.000  0.00  0.00    +0.048 A 
ATOM     17  C   UNL     1      -2.486  -5.301   0.000  0.00  0.00    +0.144 A 
ENDROOT
BRANCH   8   7
ATOM      6  N   UNL     1      -2.486  -2.301   0.000  0.00  0.00    -0.121 NA
ATOM      7  N   UNL     1      -3.785  -3.051   0.000  0.00  0.00    -0.143 NA
BRANCH   6   5
ATOM      1  N   UNL     1      -3.700   1.055   0.000  0.00  0.00    -0.228 NA
ATOM      2  C   UNL     1      -3.236   2.482   0.000  0.00  0.00    +0.121 A 
ATOM      3  C   UNL     1      -1.736   2.482   0.000  0.00  0.00    +0.068 A 
ATOM      4  S   UNL     1      -1.273   1.055   0.000  0.00  0.00    -0.055 S 
ATOM      5  C   UNL     1      -2.486   0.174   0.000  0.00  0.00    +0.213 A 
ENDBRANCH   6   5
ENDBRANCH   8   7
BRANCH  17  18
ATOM     18  O   UNL     1      -1.187  -4.551   0.000  0.00  0.00    -0.505 OA
ATOM     19  H   UNL     1      -0.376  -5.020   0.000  0.00  0.00    +0.292 HD
ENDBRANCH  17  18
TORSDOF 3