REMARK  Name = 139257
REMARK  3 active torsions:
REMARK  status: ('A' for Active; 'I' for Inactive)
REMARK    1  A    between atoms: C_6  and  N_8
REMARK    2  A    between atoms: C_6  and  N_9
REMARK    3  A    between atoms: N_9  and  C_10
REMARK                            x       y       z     vdW  Elec       q    Type
REMARK                         _______ _______ _______ _____ _____    ______ ____
ROOT
ATOM      4  C   UNL     1       5.705  -1.562   0.000  0.00  0.00    +0.140 C 
ATOM     13  S   UNL     1       6.455  -0.263   0.000  0.00  0.00    -0.018 S 
ENDROOT
BRANCH   4   2
ATOM      1  C   UNL     1       3.455  -0.263   0.000  0.00  0.00    +0.164 A 
ATOM      2  N   UNL     1       4.205  -1.562   0.000  0.00  0.00    -0.276 N 
ATOM      3  H   UNL     1       3.713  -2.415   0.000  0.00  0.00    +0.156 HD
ATOM     14  S   UNL     1       1.964  -0.106   0.000  0.00  0.00    -0.061 S 
ATOM     15  C   UNL     1       1.652   1.361   0.000  0.00  0.00    +0.068 A 
ATOM     16  C   UNL     1       2.951   2.111   0.000  0.00  0.00    +0.120 A 
ATOM     17  N   UNL     1       4.066   1.107   0.000  0.00  0.00    -0.233 NA
ENDBRANCH   4   2
BRANCH   4   5
ATOM      5  N   UNL     1       6.455  -2.861   0.000  0.00  0.00    -0.297 N 
ATOM      6  H   UNL     1       5.963  -3.714   0.000  0.00  0.00    +0.154 HD
BRANCH   5   7
ATOM      7  C   UNL     1       7.955  -2.861   0.000  0.00  0.00    +0.033 A 
ATOM      8  C   UNL     1       8.706  -4.160   0.000  0.00  0.00    +0.023 A 
ATOM      9  C   UNL     1      10.206  -4.160   0.000  0.00  0.00    +0.002 A 
ATOM     10  C   UNL     1      10.956  -2.861   0.000  0.00  0.00    +0.000 A 
ATOM     11  C   UNL     1      10.206  -1.562   0.000  0.00  0.00    +0.002 A 
ATOM     12  C   UNL     1       8.706  -1.562   0.000  0.00  0.00    +0.023 A 
ENDBRANCH   5   7
ENDBRANCH   4   5
TORSDOF 3