REMARK  Name = 135381
REMARK  0 active torsions:
REMARK  status: ('A' for Active; 'I' for Inactive)
REMARK                            x       y       z     vdW  Elec       q    Type
REMARK                         _______ _______ _______ _____ _____    ______ ____
ROOT
ATOM      1  O   UNL     1      -0.459  -1.650   0.000  0.00  0.00    -0.174 OA
ATOM      2  S   UNL     1       0.013  -0.833   0.000  0.00  0.00    -0.023 S 
ATOM      3  C   UNL     1      -0.775  -0.379   0.000  0.00  0.00    +0.148 C 
ATOM      4  C   UNL     1      -1.563  -0.833   0.000  0.00  0.00    +0.036 C 
ATOM      5  C   UNL     1      -1.935  -0.129   0.000  0.00  0.00    +0.010 C 
ATOM      6  C   UNL     1      -1.275   0.271   0.000  0.00  0.00    +0.009 C 
ATOM      7  C   UNL     1      -1.563   0.986   0.000  0.00  0.00    +0.023 C 
ATOM      8  C   UNL     1      -2.351   0.531   0.000  0.00  0.00    -0.027 C 
ATOM      9  C   UNL     1      -2.351  -0.379   0.000  0.00  0.00    -0.025 C 
ATOM     10  C   UNL     1      -0.775   0.531   0.000  0.00  0.00    +0.087 C 
ATOM     11  C   UNL     1       0.013   0.986   0.000  0.00  0.00    +0.144 C 
ATOM     12  C   UNL     1       0.817   0.556   0.000  0.00  0.00    +0.087 C 
ATOM     13  C   UNL     1       1.605   1.011   0.000  0.00  0.00    +0.023 C 
ATOM     14  C   UNL     1       1.895   0.271   0.000  0.00  0.00    -0.027 C 
ATOM     15  C   UNL     1       1.235  -0.129   0.000  0.00  0.00    -0.025 C 
ATOM     16  C   UNL     1       1.605  -0.808   0.000  0.00  0.00    +0.036 C 
ATOM     17  C   UNL     1       2.393  -0.353   0.000  0.00  0.00    +0.010 C 
ATOM     18  C   UNL     1       2.393   0.556   0.000  0.00  0.00    +0.009 C 
ATOM     19  O   UNL     1       0.013   1.851   0.000  0.00  0.00    -0.297 OA
ATOM     20  C   UNL     1       0.817  -0.353   0.000  0.00  0.00    +0.148 C 
ATOM     21  O   UNL     1       0.244  -1.698   0.000  0.00  0.00    -0.174 OA
ENDROOT
TORSDOF 0