REMARK  Name = 14380
REMARK  8 active torsions:
REMARK  status: ('A' for Active; 'I' for Inactive)
REMARK    1  A    between atoms: N_2  and  C_12
REMARK    2  A    between atoms: N_3  and  C_13
REMARK    3  A    between atoms: N_5  and  C_14
REMARK    4  A    between atoms: C_10  and  O_15
REMARK    5  A    between atoms: O_15  and  C_16
REMARK    6  A    between atoms: C_16  and  C_17
REMARK    7  A    between atoms: C_17  and  C_18
REMARK    8  A    between atoms: C_17  and  C_19
REMARK                            x       y       z     vdW  Elec       q    Type
REMARK                         _______ _______ _______ _____ _____    ______ ____
ROOT
ATOM      1  O   UNL     1       0.750   2.250   0.000  0.00  0.00    -0.246 OA
ATOM      2  C   UNL     1       2.049   3.000   0.000  0.00  0.00    +0.333 A 
ATOM      3  N   UNL     1       3.348   2.250   0.000  0.00  0.00    -0.279 N 
ATOM      4  C   UNL     1       3.348   0.750   0.000  0.00  0.00    +0.155 C 
ATOM      5  C   UNL     1       4.647   3.000   0.000  0.00  0.00    +0.172 A 
ATOM      6  C   UNL     1       4.647   4.500   0.000  0.00  0.00    +0.154 A 
ATOM      7  C   UNL     1       3.348   5.250   0.000  0.00  0.00    +0.282 A 
ATOM      8  O   UNL     1       3.348   6.750   0.000  0.00  0.00    -0.265 OA
ATOM      9  N   UNL     1       6.074   4.963   0.000  0.00  0.00    -0.291 N 
ATOM     10  C   UNL     1       6.537   6.390   0.000  0.00  0.00    +0.154 C 
ATOM     11  C   UNL     1       6.955   3.750   0.000  0.00  0.00    +0.300 A 
ATOM     17  N   UNL     1       6.074   2.537   0.000  0.00  0.00    -0.177 NA
ATOM     18  N   UNL     1       2.049   4.500   0.000  0.00  0.00    -0.262 N 
ATOM     19  C   UNL     1       0.750   5.250   0.000  0.00  0.00    +0.157 C 
ENDROOT
BRANCH  11  12
ATOM     12  O   UNL     1       8.455   3.750   0.000  0.00  0.00    -0.463 OA
BRANCH  12  13
ATOM     13  C   UNL     1       9.205   2.451   0.000  0.00  0.00    +0.235 C 
BRANCH  13  14
ATOM     14  C   UNL     1      10.705   2.451   0.000  0.00  0.00    +0.020 C 
ATOM     15  C   UNL     1      11.455   3.750   0.000  0.00  0.00    +0.010 C 
ATOM     16  C   UNL     1      11.455   1.152   0.000  0.00  0.00    +0.010 C 
ENDBRANCH  13  14
ENDBRANCH  12  13
ENDBRANCH  11  12
TORSDOF 3