REMARK  Name = 13658
REMARK  7 active torsions:
REMARK  status: ('A' for Active; 'I' for Inactive)
REMARK    1  A    between atoms: C_8  and  C_19
REMARK    2  A    between atoms: C_9  and  O_13
REMARK    3  A    between atoms: C_11  and  O_15
REMARK    4  A    between atoms: C_12  and  O_17
REMARK    5  A    between atoms: O_13  and  C_14
REMARK    6  A    between atoms: O_15  and  C_16
REMARK    7  A    between atoms: O_17  and  C_18
REMARK                            x       y       z     vdW  Elec       q    Type
REMARK                         _______ _______ _______ _____ _____    ______ ____
ROOT
ATOM      5  C   UNL     1       4.272   5.899   0.000  0.00  0.00    -0.017 A 
ATOM      6  C   UNL     1       5.571   6.649   0.000  0.00  0.00    +0.057 A 
ATOM      7  C   UNL     1       6.870   5.899   0.000  0.00  0.00    +0.166 A 
ATOM     10  C   UNL     1       6.870   4.399   0.000  0.00  0.00    +0.204 A 
ATOM     13  C   UNL     1       5.571   3.650   0.000  0.00  0.00    +0.166 A 
ATOM     16  C   UNL     1       4.272   4.399   0.000  0.00  0.00    +0.057 A 
ENDROOT
BRANCH   5   4
ATOM      1  O   UNL     1       0.333   8.568   0.000  0.00  0.00    -0.245 OA
ATOM      2  C   UNL     1       1.760   9.031   0.000  0.00  0.00    +0.335 C 
ATOM      3  C   UNL     1       2.973   8.149   0.000  0.00  0.00    +0.040 C 
ATOM      4  C   UNL     1       2.973   6.649   0.000  0.00  0.00    +0.019 C 
ATOM     17  C   UNL     1       4.187   9.031   0.000  0.00  0.00    +0.083 C 
ATOM     18  C   UNL     1       3.723  10.458   0.000  0.00  0.00    +0.237 C 
ATOM     19  O   UNL     1       2.223  10.458   0.000  0.00  0.00    -0.461 OA
ENDBRANCH   5   4
BRANCH   7   8
ATOM      8  O   UNL     1       8.169   6.649   0.000  0.00  0.00    -0.491 OA
ATOM      9  C   UNL     1       9.468   5.899   0.000  0.00  0.00    +0.277 C 
ENDBRANCH   7   8
BRANCH  10  11
ATOM     11  O   UNL     1       8.169   3.650   0.000  0.00  0.00    -0.488 OA
ATOM     12  C   UNL     1       8.169   2.150   0.000  0.00  0.00    +0.277 C 
ENDBRANCH  10  11
BRANCH  13  14
ATOM     14  O   UNL     1       5.571   2.150   0.000  0.00  0.00    -0.491 OA
ATOM     15  C   UNL     1       6.870   1.400   0.000  0.00  0.00    +0.277 C 
ENDBRANCH  13  14
TORSDOF 4