REMARK  Name = 144958
REMARK  4 active torsions:
REMARK  status: ('A' for Active; 'I' for Inactive)
REMARK    1  A    between atoms: C_2  and  N_18
REMARK    2  A    between atoms: C_11  and  O_13
REMARK    3  A    between atoms: C_11  and  C_14
REMARK    4  A    between atoms: C_15  and  C_16
REMARK                            x       y       z     vdW  Elec       q    Type
REMARK                         _______ _______ _______ _____ _____    ______ ____
ROOT
ATOM      1  N   UNL     1      -3.623  -0.275   0.000  0.00  0.00    -0.253 NA
ATOM      2  C   UNL     1      -4.922  -1.025   0.000  0.00  0.00    +0.092 A 
ATOM      3  C   UNL     1      -4.922  -2.525   0.000  0.00  0.00    +0.002 A 
ATOM      4  C   UNL     1      -6.221  -3.275   0.000  0.00  0.00    +0.010 A 
ATOM      5  C   UNL     1      -7.520  -2.525   0.000  0.00  0.00    +0.003 A 
ATOM      6  C   UNL     1      -7.520  -1.025   0.000  0.00  0.00    +0.025 A 
ATOM      7  C   UNL     1      -3.623  -3.275   0.000  0.00  0.00    +0.011 A 
ATOM      8  C   UNL     1      -2.324  -2.525   0.000  0.00  0.00    +0.020 A 
ATOM      9  C   UNL     1      -6.221  -0.275   0.000  0.00  0.00    +0.060 A 
ATOM     20  C   UNL     1      -2.324  -1.025   0.000  0.00  0.00    +0.111 A 
ENDROOT
BRANCH   9  10
ATOM     10  N   UNL     1      -6.221   1.226   0.000  0.00  0.00    -0.280 N 
ATOM     11  H   UNL     1      -5.368   1.718   0.000  0.00  0.00    +0.155 HD
ATOM     12  C   UNL     1      -7.520   1.976   0.000  0.00  0.00    +0.241 C 
ATOM     13  O   UNL     1      -7.520   3.475   0.000  0.00  0.00    -0.270 OA
BRANCH  12  14
ATOM     14  C   UNL     1      -8.819   1.226   0.000  0.00  0.00    +0.074 C 
ATOM     15  C   UNL     1     -10.118   1.976   0.000  0.00  0.00    +0.096 C 
BRANCH  15  16
ATOM     16  C   UNL     1     -11.417   1.226   0.000  0.00  0.00    +0.330 C 
ATOM     19  O   UNL     1     -12.716   1.976   0.000  0.00  0.00    -0.246 OA
BRANCH  16  17
ATOM     17  O   UNL     1     -11.417  -0.275   0.000  0.00  0.00    -0.478 OA
ATOM     18  H   UNL     1     -12.228  -0.743   0.000  0.00  0.00    +0.295 HD
ENDBRANCH  16  17
ENDBRANCH  15  16
ENDBRANCH  12  14
ENDBRANCH   9  10
TORSDOF 4