REMARK  Name = 14506
REMARK  14 active torsions:
REMARK  status: ('A' for Active; 'I' for Inactive)
REMARK    1  A    between atoms: C_3  and  P_16
REMARK    2  A    between atoms: C_3  and  C_22
REMARK    3  A    between atoms: C_8  and  C_9
REMARK    4  A    between atoms: C_8  and  C_10
REMARK    5  A    between atoms: O_11  and  C_12
REMARK    6  A    between atoms: O_11  and  P_16
REMARK    7  A    between atoms: C_12  and  C_13
REMARK    8  A    between atoms: C_13  and  C_14
REMARK    9  A    between atoms: C_14  and  C_15
REMARK   10  A    between atoms: P_16  and  O_17
REMARK   11  A    between atoms: O_17  and  C_18
REMARK   12  A    between atoms: C_18  and  C_19
REMARK   13  A    between atoms: C_19  and  C_20
REMARK   14  A    between atoms: C_20  and  C_21
REMARK                            x       y       z     vdW  Elec       q    Type
REMARK                         _______ _______ _______ _____ _____    ______ ____
ROOT
ATOM     10  P   UNL     1      -4.661   1.432   0.000  0.00  0.00    +0.339 P 
ATOM     21  O   UNL     1      -3.161   1.432   0.000  0.00  0.00    -0.258 OA
ENDROOT
BRANCH  10   8
ATOM      1  O   UNL     1      -0.432   0.016   0.000  0.00  0.00    -0.297 OA
ATOM      2  C   UNL     1      -1.841  -0.497   0.000  0.00  0.00    +0.135 C 
ATOM      3  C   UNL     1      -2.102  -1.974   0.000  0.00  0.00    +0.080 C 
ATOM      4  C   UNL     1      -3.511  -2.487   0.000  0.00  0.00    -0.027 C 
ATOM      5  C   UNL     1      -4.661  -3.451   0.000  0.00  0.00    +0.011 C 
ATOM      6  C   UNL     1      -2.761  -3.786   0.000  0.00  0.00    +0.011 C 
ATOM      7  C   UNL     1      -4.661  -1.523   0.000  0.00  0.00    +0.026 C 
ATOM      8  C   UNL     1      -4.400  -0.046   0.000  0.00  0.00    +0.077 C 
ATOM      9  C   UNL     1      -5.900  -0.046   0.000  0.00  0.00    +0.024 C 
ATOM     22  C   UNL     1      -2.991   0.467   0.000  0.00  0.00    +0.093 C 
ENDBRANCH  10   8
BRANCH  10  11
ATOM     11  O   UNL     1      -6.161   1.432   0.000  0.00  0.00    -0.308 OA
BRANCH  11  12
ATOM     12  C   UNL     1      -6.911   0.133   0.000  0.00  0.00    +0.170 C 
BRANCH  12  13
ATOM     13  C   UNL     1      -8.411   0.133   0.000  0.00  0.00    +0.028 C 
BRANCH  13  14
ATOM     14  C   UNL     1      -9.161   1.432   0.000  0.00  0.00    -0.001 C 
ATOM     15  C   UNL     1     -10.661   1.432   0.000  0.00  0.00    +0.004 C 
ENDBRANCH  13  14
ENDBRANCH  12  13
ENDBRANCH  11  12
ENDBRANCH  10  11
BRANCH  10  16
ATOM     16  O   UNL     1      -4.661   2.932   0.000  0.00  0.00    -0.308 OA
BRANCH  16  17
ATOM     17  C   UNL     1      -5.960   3.682   0.000  0.00  0.00    +0.170 C 
BRANCH  17  18
ATOM     18  C   UNL     1      -7.259   2.932   0.000  0.00  0.00    +0.028 C 
BRANCH  18  19
ATOM     19  C   UNL     1      -8.558   3.682   0.000  0.00  0.00    -0.001 C 
ATOM     20  C   UNL     1      -9.857   2.932   0.000  0.00  0.00    +0.004 C 
ENDBRANCH  18  19
ENDBRANCH  17  18
ENDBRANCH  16  17
ENDBRANCH  10  16
TORSDOF 9