REMARK  Name = 143491
REMARK  13 active torsions:
REMARK  status: ('A' for Active; 'I' for Inactive)
REMARK    1  A    between atoms: O_4  and  C_19
REMARK    2  A    between atoms: O_4  and  C_27
REMARK    3  A    between atoms: C_5  and  O_32
REMARK    4  A    between atoms: C_9  and  C_35
REMARK    5  A    between atoms: C_9  and  O_37
REMARK    6  A    between atoms: C_20  and  O_31
REMARK    7  A    between atoms: C_22  and  O_28
REMARK    8  A    between atoms: C_23  and  C_33
REMARK    9  A    between atoms: C_24  and  O_30
REMARK   10  A    between atoms: C_25  and  N_34
REMARK   11  A    between atoms: O_28  and  C_29
REMARK   12  A    between atoms: C_35  and  C_36
REMARK   13  A    between atoms: N_38  and  O_39
REMARK                            x       y       z     vdW  Elec       q    Type
REMARK                         _______ _______ _______ _____ _____    ______ ____
ROOT
ATOM      1 CL   UNL     1      -7.895 -11.559   0.000  0.00  0.00    -0.145 Cl
ATOM      2  H   UNL     1      -6.565 -11.559   0.000  0.00  0.00    +0.145 HD
ENDROOT
TORSDOF 0