REMARK  Name = 135184
REMARK  5 active torsions:
REMARK  status: ('A' for Active; 'I' for Inactive)
REMARK    1  A    between atoms: C_1  and  C_14
REMARK    2  A    between atoms: C_6  and  S_15
REMARK    3  A    between atoms: C_7  and  C_20
REMARK    4  A    between atoms: S_15  and  N_18
REMARK    5  A    between atoms: N_18  and  N_19
REMARK                            x       y       z     vdW  Elec       q    Type
REMARK                         _______ _______ _______ _____ _____    ______ ____
ROOT
ATOM      7  N   UNL     1      -6.870  -0.101   0.000  0.00  0.00    -0.108 NA
ATOM      8  H   UNL     1      -7.706  -0.686   0.000  0.00  0.00    +0.172 HD
ENDROOT
BRANCH   7   9
ATOM      9  N   UNL     1      -5.461  -0.614   0.000  0.00  0.00    -0.231 N 
ATOM     10  H   UNL     1      -4.706   0.019   0.000  0.00  0.00    +0.171 HD
ATOM     11  C   UNL     1      -5.200  -2.091   0.000  0.00  0.00    +0.234 C 
ATOM     12  O   UNL     1      -3.791  -2.604   0.000  0.00  0.00    -0.274 OA
BRANCH  11  13
ATOM     13  C   UNL     1      -6.349  -3.055   0.000  0.00  0.00    +0.049 C 
ATOM     14  C   UNL     1      -6.089  -4.532   0.000  0.00  0.00    +0.016 C 
ATOM     15  C   UNL     1      -7.238  -5.496   0.000  0.00  0.00    +0.004 C 
ATOM     16  C   UNL     1      -8.647  -4.983   0.000  0.00  0.00    -0.010 C 
ATOM     17  C   UNL     1      -8.908  -3.506   0.000  0.00  0.00    +0.004 C 
ATOM     18  C   UNL     1      -7.759  -2.542   0.000  0.00  0.00    +0.016 C 
ATOM     19  C   UNL     1      -8.055  -3.356   0.000  0.00  0.00    +0.019 C 
ENDBRANCH  11  13
ENDBRANCH   7   9
BRANCH   7   6
ATOM      6  S   UNL     1      -6.870   1.400   0.000  0.00  0.00    +0.074 S 
ATOM     20  O   UNL     1      -5.370   1.400   0.000  0.00  0.00    -0.152 OA
ATOM     21  O   UNL     1      -8.370   1.400   0.000  0.00  0.00    -0.152 OA
BRANCH   6   5
ATOM      1  C   UNL     1      -6.870   5.899   0.000  0.00  0.00    -0.050 A 
ATOM      2  C   UNL     1      -6.870   7.399   0.000  0.00  0.00    +0.044 C 
ATOM      3  C   UNL     1      -8.169   5.149   0.000  0.00  0.00    +0.005 A 
ATOM      4  C   UNL     1      -8.169   3.650   0.000  0.00  0.00    +0.029 A 
ATOM      5  C   UNL     1      -6.870   2.900   0.000  0.00  0.00    +0.107 A 
ATOM     22  C   UNL     1      -5.571   3.650   0.000  0.00  0.00    +0.029 A 
ATOM     23  C   UNL     1      -5.571   5.149   0.000  0.00  0.00    +0.005 A 
ENDBRANCH   6   5
ENDBRANCH   7   6
TORSDOF 4