REMARK  Name = 14142
REMARK  6 active torsions:
REMARK  status: ('A' for Active; 'I' for Inactive)
REMARK    1  A    between atoms: N_2  and  C_19
REMARK    2  A    between atoms: N_4  and  C_20
REMARK    3  A    between atoms: C_13  and  C_21
REMARK    4  A    between atoms: C_14  and  N_22
REMARK    5  A    between atoms: C_17  and  C_21
REMARK    6  A    between atoms: C_23  and  C_25
REMARK                            x       y       z     vdW  Elec       q    Type
REMARK                         _______ _______ _______ _____ _____    ______ ____
ROOT
ATOM      1  O   UNL     1     -10.980 -10.319   0.000  0.00  0.00    -0.246 OA
ATOM      2  C   UNL     1      -9.681  -9.569   0.000  0.00  0.00    +0.333 A 
ATOM      3  N   UNL     1      -8.382 -10.319   0.000  0.00  0.00    -0.280 N 
ATOM      4  C   UNL     1      -8.382 -11.819   0.000  0.00  0.00    +0.155 C 
ATOM      5  C   UNL     1      -7.083  -9.569   0.000  0.00  0.00    +0.168 A 
ATOM      6  C   UNL     1      -7.083  -8.069   0.000  0.00  0.00    +0.149 A 
ATOM      7  C   UNL     1      -8.382  -7.319   0.000  0.00  0.00    +0.282 A 
ATOM      8  O   UNL     1      -8.382  -5.819   0.000  0.00  0.00    -0.265 OA
ATOM      9  N   UNL     1      -5.656  -7.605   0.000  0.00  0.00    -0.336 N 
ATOM     10  H   UNL     1      -5.193  -6.179   0.000  0.00  0.00    +0.167 HD
ATOM     11  C   UNL     1      -4.774  -8.819   0.000  0.00  0.00    +0.114 A 
ATOM     24  N   UNL     1      -5.656 -10.032   0.000  0.00  0.00    -0.214 NA
ATOM     25  N   UNL     1      -9.681  -8.069   0.000  0.00  0.00    -0.262 N 
ATOM     26  C   UNL     1     -10.980  -7.319   0.000  0.00  0.00    +0.157 C 
ENDROOT
BRANCH  11  12
ATOM     12  C   UNL     1      -3.275  -8.819   0.000  0.00  0.00    +0.109 C 
BRANCH  12  13
ATOM     13  C   UNL     1      -2.525  -7.520   0.000  0.00  0.00    -0.040 A 
ATOM     14  C   UNL     1      -1.025  -7.520   0.000  0.00  0.00    +0.006 A 
ATOM     15  C   UNL     1      -0.275  -6.221   0.000  0.00  0.00    +0.023 A 
ATOM     16  C   UNL     1      -1.025  -4.922   0.000  0.00  0.00    +0.033 A 
ATOM     22  C   UNL     1      -2.525  -4.922   0.000  0.00  0.00    +0.023 A 
ATOM     23  C   UNL     1      -3.275  -6.221   0.000  0.00  0.00    +0.006 A 
BRANCH  16  17
ATOM     17  N   UNL     1      -0.275  -3.623   0.000  0.00  0.00    -0.286 N 
ATOM     18  H   UNL     1       0.710  -3.623   0.000  0.00  0.00    +0.155 HD
ATOM     19  C   UNL     1      -1.025  -2.324   0.000  0.00  0.00    +0.214 C 
ATOM     20  C   UNL     1      -2.525  -2.324   0.000  0.00  0.00    +0.109 C 
ATOM     21  O   UNL     1      -0.275  -1.025   0.000  0.00  0.00    -0.276 OA
ENDBRANCH  16  17
ENDBRANCH  12  13
ENDBRANCH  11  12
TORSDOF 3