REMARK  Name = 142277
REMARK  6 active torsions:
REMARK  status: ('A' for Active; 'I' for Inactive)
REMARK    1  A    between atoms: S_2  and  C_6
REMARK    2  A    between atoms: S_2  and  C_19
REMARK    3  A    between atoms: C_5  and  N_18
REMARK    4  A    between atoms: C_10  and  N_15
REMARK    5  A    between atoms: C_19  and  C_20
REMARK    6  A    between atoms: C_20  and  O_22
REMARK                            x       y       z     vdW  Elec       q    Type
REMARK                         _______ _______ _______ _____ _____    ______ ____
ROOT
ATOM      8  N   UNL     1      -3.348   3.750   0.000  0.00  0.00    -0.267 N 
ATOM      9  H   UNL     1      -2.495   3.258   0.000  0.00  0.00    +0.156 HD
ATOM     10  C   UNL     1      -3.348   5.250   0.000  0.00  0.00    +0.308 C 
ATOM     11  N   UNL     1      -2.049   6.000   0.000  0.00  0.00    -0.269 N 
ATOM     12  H   UNL     1      -1.196   5.508   0.000  0.00  0.00    +0.156 HD
ATOM     25  O   UNL     1      -4.647   6.000   0.000  0.00  0.00    -0.252 OA
ENDROOT
BRANCH   8   7
ATOM      1  F   UNL     1      -3.348   0.750   0.000  0.00  0.00    -0.204 F 
ATOM      2  C   UNL     1      -4.647   1.500   0.000  0.00  0.00    +0.145 A 
ATOM      3  C   UNL     1      -5.946   0.750   0.000  0.00  0.00    +0.040 A 
ATOM      4  C   UNL     1      -7.245   1.500   0.000  0.00  0.00    +0.003 A 
ATOM      5  C   UNL     1      -7.245   3.000   0.000  0.00  0.00    +0.002 A 
ATOM      6  C   UNL     1      -5.946   3.750   0.000  0.00  0.00    +0.026 A 
ATOM      7  C   UNL     1      -4.647   3.000   0.000  0.00  0.00    +0.070 A 
ENDBRANCH   8   7
BRANCH  11  13
ATOM     13  C   UNL     1      -2.049   7.500   0.000  0.00  0.00    +0.035 A 
ATOM     14  C   UNL     1      -0.750   8.250   0.000  0.00  0.00    +0.024 A 
ATOM     15  C   UNL     1      -0.750   9.750   0.000  0.00  0.00    +0.016 A 
ATOM     16  C   UNL     1      -2.049  10.500   0.000  0.00  0.00    +0.009 A 
ATOM     17  C   UNL     1      -3.348   9.750   0.000  0.00  0.00    +0.016 A 
ATOM     24  C   UNL     1      -3.348   8.250   0.000  0.00  0.00    +0.024 A 
BRANCH  16  18
ATOM     18  S   UNL     1      -2.049  12.000   0.000  0.00  0.00    -0.114 S 
BRANCH  18  19
ATOM     19  C   UNL     1      -3.348  12.750   0.000  0.00  0.00    +0.194 C 
BRANCH  19  20
ATOM     20  C   UNL     1      -4.647  12.000   0.000  0.00  0.00    +0.315 C 
ATOM     23  O   UNL     1      -4.647  10.500   0.000  0.00  0.00    -0.250 OA
BRANCH  20  21
ATOM     21  O   UNL     1      -5.946  12.750   0.000  0.00  0.00    -0.480 OA
ATOM     22  H   UNL     1      -5.946  13.687   0.000  0.00  0.00    +0.295 HD
ENDBRANCH  20  21
ENDBRANCH  19  20
ENDBRANCH  18  19
ENDBRANCH  16  18
ENDBRANCH  11  13
TORSDOF 6