REMARK  Name = 143241
REMARK  11 active torsions:
REMARK  status: ('A' for Active; 'I' for Inactive)
REMARK    1  A    between atoms: C_2  and  O_24
REMARK    2  A    between atoms: C_3  and  O_22
REMARK    3  A    between atoms: C_11  and  O_18
REMARK    4  A    between atoms: C_15  and  O_20
REMARK    5  A    between atoms: O_18  and  C_19
REMARK    6  A    between atoms: O_20  and  C_21
REMARK    7  A    between atoms: O_22  and  C_23
REMARK    8  A    between atoms: O_24  and  C_25
REMARK    9  A    between atoms: C_26  and  O_28
REMARK   10  A    between atoms: O_28  and  C_29
REMARK   11  A    between atoms: C_29  and  C_30
REMARK                            x       y       z     vdW  Elec       q    Type
REMARK                         _______ _______ _______ _____ _____    ______ ____
ROOT
ATOM      1  N   UNL     1      10.767  -0.851   0.000  0.00  0.00    -0.236 N 
ATOM      2  C   UNL     1      10.767  -2.350   0.000  0.00  0.00    +0.407 C 
ATOM      6  O   UNL     1       9.468  -3.100   0.000  0.00  0.00    -0.226 OA
ATOM      7  C   UNL     1       9.468  -0.101   0.000  0.00  0.00    +0.048 A 
ATOM      8  C   UNL     1       8.169  -0.851   0.000  0.00  0.00    +0.033 A 
ATOM      9  C   UNL     1       6.870  -0.101   0.000  0.00  0.00    -0.012 A 
ATOM     10  C   UNL     1       5.571  -0.851   0.000  0.00  0.00    +0.058 A 
ATOM     11  C   UNL     1       4.272  -0.101   0.000  0.00  0.00    +0.162 A 
ATOM     14  C   UNL     1       4.272   1.400   0.000  0.00  0.00    +0.162 A 
ATOM     17  C   UNL     1       5.571   2.150   0.000  0.00  0.00    +0.058 A 
ATOM     18  C   UNL     1       6.870   1.400   0.000  0.00  0.00    -0.003 A 
ATOM     19  C   UNL     1       8.169   2.150   0.000  0.00  0.00    +0.037 A 
ATOM     20  C   UNL     1       8.169   3.650   0.000  0.00  0.00    +0.170 A 
ATOM     23  C   UNL     1       9.468   4.399   0.000  0.00  0.00    +0.162 A 
ATOM     26  C   UNL     1      10.767   3.650   0.000  0.00  0.00    +0.053 A 
ATOM     27  C   UNL     1      10.767   2.150   0.000  0.00  0.00    -0.033 A 
ATOM     28  C   UNL     1      12.066   1.400   0.000  0.00  0.00    +0.055 C 
ATOM     29  C   UNL     1       9.468   1.400   0.000  0.00  0.00    +0.011 A 
ATOM     30  C   UNL     1      12.066  -0.101   0.000  0.00  0.00    +0.122 C 
ENDROOT
BRANCH  11  12
ATOM     12  O   UNL     1       2.973  -0.851   0.000  0.00  0.00    -0.491 OA
ATOM     13  C   UNL     1       1.674  -0.101   0.000  0.00  0.00    +0.277 C 
ENDBRANCH  11  12
BRANCH  14  15
ATOM     15  O   UNL     1       2.973   2.150   0.000  0.00  0.00    -0.491 OA
ATOM     16  C   UNL     1       1.674   1.400   0.000  0.00  0.00    +0.277 C 
ENDBRANCH  14  15
BRANCH  20  21
ATOM     21  O   UNL     1       6.870   4.399   0.000  0.00  0.00    -0.491 OA
ATOM     22  C   UNL     1       5.571   3.650   0.000  0.00  0.00    +0.277 C 
ENDBRANCH  20  21
BRANCH  23  24
ATOM     24  O   UNL     1       9.468   5.899   0.000  0.00  0.00    -0.491 OA
ATOM     25  C   UNL     1       8.169   6.649   0.000  0.00  0.00    +0.277 C 
ENDBRANCH  23  24
BRANCH   2   3
ATOM      3  O   UNL     1      12.066  -3.100   0.000  0.00  0.00    -0.450 OA
BRANCH   3   4
ATOM      4  C   UNL     1      13.365  -2.350   0.000  0.00  0.00    +0.230 C 
ATOM      5  C   UNL     1      14.664  -3.100   0.000  0.00  0.00    +0.048 C 
ENDBRANCH   3   4
ENDBRANCH   2   3
TORSDOF 6