REMARK  Name = 145180
REMARK  1 active torsions:
REMARK  status: ('A' for Active; 'I' for Inactive)
REMARK    1  A    between atoms: N_1  and  C_11
REMARK                            x       y       z     vdW  Elec       q    Type
REMARK                         _______ _______ _______ _____ _____    ______ ____
ROOT
ATOM      1  N   UNL     1       0.275   4.024   0.000  0.00  0.00    -0.314 N 
ATOM      2  C   UNL     1      -1.025   3.275   0.000  0.00  0.00    +0.152 C 
ATOM      3  C   UNL     1       1.574   3.275   0.000  0.00  0.00    +0.186 A 
ATOM      4  N   UNL     1       2.873   4.024   0.000  0.00  0.00    -0.173 N 
ATOM      5  C   UNL     1       2.873   5.524   0.000  0.00  0.00    +0.256 A 
ATOM      6  N   UNL     1       4.299   5.988   0.000  0.00  0.00    -0.197 NA
ATOM      7  C   UNL     1       5.181   4.774   0.000  0.00  0.00    +0.247 A 
ATOM      8  N   UNL     1       1.574   6.274   0.000  0.00  0.00    -0.201 NA
ATOM      9  N   UNL     1       4.299   3.561   0.000  0.00  0.00    -0.150 NA
ATOM     10  S   UNL     1       1.574   1.775   0.000  0.00  0.00    -0.011 S 
ATOM     11  C   UNL     1       0.275   5.524   0.000  0.00  0.00    +0.204 A 
ENDROOT
TORSDOF 0