REMARK  Name = 140873
REMARK  5 active torsions:
REMARK  status: ('A' for Active; 'I' for Inactive)
REMARK    1  A    between atoms: C_5  and  C_8
REMARK    2  A    between atoms: C_6  and  N_17
REMARK    3  A    between atoms: C_8  and  C_13
REMARK    4  A    between atoms: C_9  and  C_10
REMARK    5  A    between atoms: C_10  and  N_19
REMARK                            x       y       z     vdW  Elec       q    Type
REMARK                         _______ _______ _______ _____ _____    ______ ____
ROOT
ATOM      1  C   UNL     1      -8.869  -0.245   0.000  0.00  0.00    +0.025 A 
ATOM      2  C   UNL     1      -7.570   0.505   0.000  0.00  0.00    +0.044 A 
ATOM     11  C   UNL     1      -6.271  -0.245   0.000  0.00  0.00    +0.046 A 
ATOM     20  C   UNL     1      -6.271  -1.745   0.000  0.00  0.00    +0.033 A 
ATOM     21  C   UNL     1      -7.570  -2.495   0.000  0.00  0.00    +0.042 A 
ATOM     22 CL   UNL     1      -7.570  -3.995   0.000  0.00  0.00    -0.084 Cl
ATOM     23  C   UNL     1      -8.869  -1.745   0.000  0.00  0.00    +0.022 A 
ENDROOT
BRANCH   2   3
ATOM      3  N   UNL     1      -7.570   2.005   0.000  0.00  0.00    -0.284 N 
ATOM      4  H   UNL     1      -6.718   2.497   0.000  0.00  0.00    +0.155 HD
ATOM      5  C   UNL     1      -8.869   2.755   0.000  0.00  0.00    +0.231 C 
ATOM      6  O   UNL     1      -8.869   4.255   0.000  0.00  0.00    -0.274 OA
BRANCH   5   7
ATOM      7  C   UNL     1     -10.168   2.005   0.000  0.00  0.00    +0.175 C 
BRANCH   7   8
ATOM      8  N   UNL     1     -11.467   2.755   0.000  0.00  0.00    -0.322 NA
ATOM      9  H   UNL     1     -12.351   2.245   0.000  0.00  0.00    +0.119 HD
ATOM     10  H   UNL     1     -11.467   3.775   0.000  0.00  0.00    +0.119 HD
ENDBRANCH   7   8
ENDBRANCH   5   7
ENDBRANCH   2   3
BRANCH  11  12
ATOM     12  C   UNL     1      -4.972   0.505   0.000  0.00  0.00    +0.211 C 
ATOM     19  O   UNL     1      -4.972   2.005   0.000  0.00  0.00    -0.285 OA
BRANCH  12  13
ATOM     13  C   UNL     1      -3.673  -0.245   0.000  0.00  0.00    +0.087 A 
ATOM     14  N   UNL     1      -2.303   0.365   0.000  0.00  0.00    -0.358 N 
ATOM     15  H   UNL     1      -2.098   1.328   0.000  0.00  0.00    +0.165 HD
ATOM     16  C   UNL     1      -1.299  -0.750   0.000  0.00  0.00    +0.083 A 
ATOM     17  C   UNL     1      -2.049  -2.049   0.000  0.00  0.00    +0.020 A 
ATOM     18  C   UNL     1      -3.516  -1.737   0.000  0.00  0.00    +0.031 A 
ENDBRANCH  12  13
ENDBRANCH  11  12
TORSDOF 5