REMARK  Name = 13791
REMARK  8 active torsions:
REMARK  status: ('A' for Active; 'I' for Inactive)
REMARK    1  A    between atoms: C_5  and  C_8
REMARK    2  A    between atoms: C_6  and  AS_21
REMARK    3  A    between atoms: C_10  and  N_18
REMARK    4  A    between atoms: C_12  and  AS_15
REMARK    5  A    between atoms: AS_15  and  O_16
REMARK    6  A    between atoms: AS_15  and  O_17
REMARK    7  A    between atoms: AS_21  and  O_22
REMARK    8  A    between atoms: AS_21  and  O_23
REMARK                            x       y       z     vdW  Elec       q    Type
REMARK                         _______ _______ _______ _____ _____    ______ ____
ROOT
ATOM      7  C   UNL     1       1.768   3.560   0.000  0.00  0.00    +0.000 A 
ATOM      8  C   UNL     1       3.067   2.810   0.000  0.00  0.00    +0.000 A 
ATOM      9  C   UNL     1       4.366   3.560   0.000  0.00  0.00    +0.000 A 
ATOM     10  C   UNL     1       4.366   5.060   0.000  0.00  0.00    +0.000 A 
ATOM     11  C   UNL     1       3.067   5.810   0.000  0.00  0.00    +0.000 A 
ATOM     24  C   UNL     1       1.768   5.060   0.000  0.00  0.00    +0.000 A 
ENDROOT
BRANCH  10  12
ATOM     12  C   UNL     1       5.665   5.810   0.000  0.00  0.00    +0.000 A 
ATOM     13  C   UNL     1       6.964   5.060   0.000  0.00  0.00    +0.000 A 
ATOM     14  C   UNL     1       8.263   5.810   0.000  0.00  0.00    +0.000 A 
ATOM     15  C   UNL     1       8.263   7.310   0.000  0.00  0.00    +0.000 A 
ATOM     22  C   UNL     1       6.964   8.060   0.000  0.00  0.00    +0.000 A 
ATOM     23  C   UNL     1       5.665   7.310   0.000  0.00  0.00    +0.000 A 
BRANCH  15  16
ATOM     16 AS   UNL     1       9.562   8.060   0.000  0.00  0.00    +0.000 As
ATOM     21  O   UNL     1      11.011   7.671   0.000  0.00  0.00    +0.000 OA
BRANCH  16  17
ATOM     17  O   UNL     1       9.366   9.547   0.000  0.00  0.00    +0.000 OA
ATOM     18  H   UNL     1      10.136  10.137   0.000  0.00  0.00    +0.000 HD
ENDBRANCH  16  17
BRANCH  16  19
ATOM     19  O   UNL     1      10.861   7.310   0.000  0.00  0.00    +0.000 OA
ATOM     20  H   UNL     1      10.861   6.340   0.000  0.00  0.00    +0.000 HD
ENDBRANCH  16  19
ENDBRANCH  15  16
ENDBRANCH  10  12
BRANCH  24  25
ATOM     25  N   UNL     1       0.469   5.810   0.000  0.00  0.00    +1.000 N 
ATOM     26  O   UNL     1       0.469   7.310   0.000  0.00  0.00    +0.000 OA
ATOM     27  O   UNL     1      -0.830   5.060   0.000  0.00  0.00    -1.000 OA
ENDBRANCH  24  25
BRANCH   7   2
ATOM      1  O   UNL     1      -1.825   2.710   0.000  0.00  0.00    +0.000 OA
ATOM      2 AS   UNL     1      -0.376   2.322   0.000  0.00  0.00    +0.000 As
BRANCH   2   3
ATOM      3  O   UNL     1       0.013   0.873   0.000  0.00  0.00    +0.000 OA
ATOM      4  H   UNL     1      -0.673   0.187   0.000  0.00  0.00    +0.000 HD
ENDBRANCH   2   3
BRANCH   2   5
ATOM      5  O   UNL     1       0.374   3.621   0.000  0.00  0.00    +0.000 OA
ATOM      6  H   UNL     1       1.344   3.621   0.000  0.00  0.00    +0.000 HD
ENDBRANCH   2   5
ENDBRANCH   7   2
TORSDOF 8