REMARK  Name = NSC 60387
REMARK  8 active torsions:
REMARK  status: ('A' for Active; 'I' for Inactive)
REMARK    1  A    between atoms: C_12  and  O_13
REMARK    2  A    between atoms: O_13  and  C_14
REMARK    3  A    between atoms: C_15  and  O_16
REMARK    4  A    between atoms: O_16  and  C_17
REMARK    5  A    between atoms: C_21  and  O_22
REMARK    6  A    between atoms: O_22  and  C_23
REMARK    7  A    between atoms: C_24  and  O_25
REMARK    8  A    between atoms: O_25  and  C_26
REMARK                            x       y       z     vdW  Elec       q    Type
REMARK                         _______ _______ _______ _____ _____    ______ ____
ROOT
ATOM      1  C   UNL     1     -10.546  -6.000   0.000  0.00  0.00    +0.061 C 
ATOM      2  C   UNL     1     -11.973  -5.537   0.000  0.00  0.00    +0.020 C 
ATOM      3  C   UNL     1     -12.854  -6.750   0.000  0.00  0.00    +0.017 C 
ATOM      4  C   UNL     1     -11.973  -7.963   0.000  0.00  0.00    +0.085 C 
ATOM      5  C   UNL     1      -9.247  -5.250   0.000  0.00  0.00    +0.055 C 
ATOM      6  C   UNL     1      -7.948  -6.000   0.000  0.00  0.00    -0.033 A 
ATOM      7  C   UNL     1      -7.948  -7.500   0.000  0.00  0.00    -0.022 A 
ATOM      8  C   UNL     1      -6.649  -8.250   0.000  0.00  0.00    -0.009 A 
ATOM      9  C   UNL     1      -6.649  -9.750   0.000  0.00  0.00    +0.012 A 
ATOM     10  C   UNL     1      -5.350 -10.500   0.000  0.00  0.00    +0.050 A 
ATOM     11  C   UNL     1      -4.051  -9.750   0.000  0.00  0.00    +0.162 A 
ATOM     14  C   UNL     1      -4.051  -8.250   0.000  0.00  0.00    +0.170 A 
ATOM     17  C   UNL     1      -5.350  -7.500   0.000  0.00  0.00    +0.036 A 
ATOM     18  C   UNL     1      -5.350  -6.000   0.000  0.00  0.00    -0.003 A 
ATOM     19  C   UNL     1      -4.051  -5.250   0.000  0.00  0.00    +0.058 A 
ATOM     20  C   UNL     1      -4.051  -3.750   0.000  0.00  0.00    +0.162 A 
ATOM     23  C   UNL     1      -5.350  -3.000   0.000  0.00  0.00    +0.162 A 
ATOM     26  C   UNL     1      -6.649  -3.750   0.000  0.00  0.00    +0.058 A 
ATOM     27  C   UNL     1      -9.247  -8.250   0.000  0.00  0.00    +0.120 C 
ATOM     28  C   UNL     1      -6.649  -5.250   0.000  0.00  0.00    -0.010 A 
ATOM     29  N   UNL     1     -10.546  -7.500   0.000  0.00  0.00    -0.295 NA
ENDROOT
BRANCH  11  12
ATOM     12  O   UNL     1      -2.752 -10.500   0.000  0.00  0.00    -0.491 OA
ATOM     13  C   UNL     1      -1.453  -9.750   0.000  0.00  0.00    +0.277 C 
ENDBRANCH  11  12
BRANCH  14  15
ATOM     15  O   UNL     1      -2.752  -7.500   0.000  0.00  0.00    -0.491 OA
ATOM     16  C   UNL     1      -1.453  -8.250   0.000  0.00  0.00    +0.277 C 
ENDBRANCH  14  15
BRANCH  20  21
ATOM     21  O   UNL     1      -2.752  -3.000   0.000  0.00  0.00    -0.491 OA
ATOM     22  C   UNL     1      -1.453  -3.750   0.000  0.00  0.00    +0.277 C 
ENDBRANCH  20  21
BRANCH  23  24
ATOM     24  O   UNL     1      -5.350  -1.500   0.000  0.00  0.00    -0.491 OA
ATOM     25  C   UNL     1      -6.649  -0.750   0.000  0.00  0.00    +0.277 C 
ENDBRANCH  23  24
TORSDOF 4