REMARK  Name = NSC 59729
REMARK  11 active torsions:
REMARK  status: ('A' for Active; 'I' for Inactive)
REMARK    1  A    between atoms: C_5  and  C_6
REMARK    2  A    between atoms: C_7  and  C_8
REMARK    3  A    between atoms: N_9  and  C_10
REMARK    4  A    between atoms: C_10  and  C_11
REMARK    5  A    between atoms: C_10  and  C_18
REMARK    6  A    between atoms: C_11  and  S_12
REMARK    7  A    between atoms: S_12  and  C_13
REMARK    8  A    between atoms: C_13  and  S_14
REMARK    9  A    between atoms: S_14  and  C_15
REMARK   10  A    between atoms: C_18  and  O_19
REMARK   11  A    between atoms: C_21  and  C_22
REMARK                            x       y       z     vdW  Elec       q    Type
REMARK                         _______ _______ _______ _____ _____    ______ ____
ROOT
ATOM      9  C   UNK A   0      -5.946  -2.250   0.000  0.00  0.00    +0.237 C 
ATOM     10  N   UNK A   1      -4.647  -3.000   0.000  0.00  0.00    -0.306 N 
ATOM     11  H   UNK A   1      -3.795  -2.508   0.000  0.00  0.00    +0.149 HD
ATOM     22  O   UNK A   0      -5.946  -0.750   0.000  0.00  0.00    -0.271 OA
ENDROOT
BRANCH   9   8
ATOM      7  C   UNK A   0      -8.544  -2.250   0.000  0.00  0.00    +0.020 C 
ATOM      8  C   UNK A   0      -7.245  -3.000   0.000  0.00  0.00    +0.068 C 
BRANCH   7   6
ATOM      1  C   UNK A   0     -12.441  -4.500   0.000  0.00  0.00    +0.327 A 
ATOM      2  N   UNK A   0     -12.441  -3.000   0.000  0.00  0.00    -0.275 N 
ATOM      3  H   UNK A   0     -13.294  -2.508   0.000  0.00  0.00    +0.173 HD
ATOM      4  C   UNK A   0     -11.142  -2.250   0.000  0.00  0.00    +0.261 A 
ATOM      5  O   UNK A   0     -11.142  -0.750   0.000  0.00  0.00    -0.267 OA
ATOM      6  C   UNK A   0      -9.843  -3.000   0.000  0.00  0.00    +0.059 A 
ATOM     23  C   UNK A   0      -9.843  -4.500   0.000  0.00  0.00    +0.030 A 
ATOM     24  C   UNK A   0      -8.544  -5.250   0.000  0.00  0.00    +0.064 C 
ATOM     25  N   UNK A   0     -11.142  -5.250   0.000  0.00  0.00    -0.311 N 
ATOM     26  H   UNK A   0     -11.142  -6.234   0.000  0.00  0.00    +0.170 HD
ATOM     27  O   UNK A   0     -13.740  -5.250   0.000  0.00  0.00    -0.247 OA
ENDBRANCH   7   6
ENDBRANCH   9   8
BRANCH  10  12
ATOM     12  C   UNK A   1      -4.647  -4.500   0.000  0.00  0.00    +0.111 C 
BRANCH  12  13
ATOM     13  C   UNK A   1      -3.348  -5.250   0.000  0.00  0.00    +0.129 C 
BRANCH  13  14
ATOM     14  S   UNK A   1      -2.049  -4.500   0.000  0.00  0.00    +0.034 S 
ATOM     18  O   UNK A   1      -0.750  -5.250   0.000  0.00  0.00    -0.256 OA
BRANCH  14  15
ATOM     15  C   UNK A   1      -2.049  -3.000   0.000  0.00  0.00    +0.172 C 
BRANCH  15  16
ATOM     16  S   UNK A   1      -0.750  -2.250   0.000  0.00  0.00    -0.151 S 
ATOM     17  C   UNK A   1      -0.750  -0.750   0.000  0.00  0.00    +0.085 C 
ENDBRANCH  15  16
ENDBRANCH  14  15
ENDBRANCH  13  14
ENDBRANCH  12  13
BRANCH  12  19
ATOM     19  C   UNK A   1      -5.946  -5.250   0.000  0.00  0.00    +0.179 C 
BRANCH  19  20
ATOM     20  O   UNK A   1      -7.245  -4.500   0.000  0.00  0.00    -0.393 OA
ATOM     21  H   UNK A   1      -7.245  -3.530   0.000  0.00  0.00    +0.209 HD
ENDBRANCH  19  20
ENDBRANCH  12  19
ENDBRANCH  10  12
TORSDOF 9