REMARK  Name = NSC 614552
REMARK  4 active torsions:
REMARK  status: ('A' for Active; 'I' for Inactive)
REMARK    1  A    between atoms: C_1  and  O_2
REMARK    2  A    between atoms: C_7  and  O_8
REMARK    3  A    between atoms: C_10  and  O_11
REMARK    4  A    between atoms: C_12  and  O_13
REMARK                            x       y       z     vdW  Elec       q    Type
REMARK                         _______ _______ _______ _____ _____    ______ ____
ROOT
ATOM      1  C   UNL     1       1.485   2.060   0.000  0.00  0.00    +0.159 C 
ATOM      4  C   UNL     1       2.953   1.748   0.000  0.00  0.00    +0.118 C 
ATOM      5  N   UNL     1       3.956   2.863   0.000  0.00  0.00    -0.292 NA
ATOM      6  C   UNL     1       5.456   2.863   0.000  0.00  0.00    +0.087 C 
ATOM      7  C   UNL     1       5.920   4.289   0.000  0.00  0.00    +0.048 C 
ATOM      8  C   UNL     1       4.706   5.171   0.000  0.00  0.00    +0.135 C 
ATOM     11  C   UNL     1       3.493   4.289   0.000  0.00  0.00    +0.116 C 
ATOM     12  C   UNL     1       2.025   4.601   0.000  0.00  0.00    +0.165 C 
ATOM     15  C   UNL     1       1.022   3.486   0.000  0.00  0.00    +0.174 C 
ENDROOT
BRANCH   1   2
ATOM      2  O   UNL     1       0.481   0.945   0.000  0.00  0.00    -0.388 OA
ATOM      3  H   UNL     1      -0.467   1.147   0.000  0.00  0.00    +0.210 HD
ENDBRANCH   1   2
BRANCH   8   9
ATOM      9  O   UNL     1       4.706   6.671   0.000  0.00  0.00    -0.390 OA
ATOM     10  H   UNL     1       5.546   7.156   0.000  0.00  0.00    +0.210 HD
ENDBRANCH   8   9
BRANCH  12  13
ATOM     13  O   UNL     1       1.562   6.028   0.000  0.00  0.00    -0.388 OA
ATOM     14  H   UNL     1       2.211   6.749   0.000  0.00  0.00    +0.210 HD
ENDBRANCH  12  13
BRANCH  15  16
ATOM     16  O   UNL     1      -0.446   3.798   0.000  0.00  0.00    -0.387 OA
ATOM     17  H   UNL     1      -0.745   4.721   0.000  0.00  0.00    +0.210 HD
ENDBRANCH  15  16
TORSDOF 4