REMARK  Name = NSC 63946
REMARK  29 active torsions:
REMARK  status: ('A' for Active; 'I' for Inactive)
REMARK    1  A    between atoms: C_3  and  C_4
REMARK    2  A    between atoms: C_6  and  O_7
REMARK    3  A    between atoms: C_6  and  C_8
REMARK    4  A    between atoms: C_9  and  O_38
REMARK    5  A    between atoms: C_10  and  C_11
REMARK    6  A    between atoms: C_12  and  O_26
REMARK    7  A    between atoms: C_13  and  C_14
REMARK    8  A    between atoms: C_18  and  C_19
REMARK    9  A    between atoms: C_19  and  C_20
REMARK   10  A    between atoms: C_21  and  C_22
REMARK   11  A    between atoms: C_21  and  O_23
REMARK   12  A    between atoms: C_24  and  O_25
REMARK   13  A    between atoms: O_26  and  C_27
REMARK   14  A    between atoms: C_29  and  C_30
REMARK   15  A    between atoms: C_29  and  O_31
REMARK   16  A    between atoms: O_31  and  C_32
REMARK   17  A    between atoms: C_33  and  O_34
REMARK   18  A    between atoms: C_35  and  C_36
REMARK   19  A    between atoms: O_38  and  C_39
REMARK   20  A    between atoms: C_40  and  O_48
REMARK   21  A    between atoms: C_41  and  N_42
REMARK   22  A    between atoms: N_42  and  C_43
REMARK   23  A    between atoms: N_42  and  C_44
REMARK   24  A    between atoms: C_46  and  C_47
REMARK   25  A    between atoms: O_48  and  C_49
REMARK   26  A    between atoms: C_49  and  C_50
REMARK   27  A    between atoms: C_50  and  C_51
REMARK   28  A    between atoms: C_51  and  C_52
REMARK   29  A    between atoms: C_59  and  C_60
REMARK                            x       y       z     vdW  Elec       q    Type
REMARK                         _______ _______ _______ _____ _____    ______ ____
ROOT
ATOM      1  O   UNL     1     -15.451  -1.220   0.000  0.00  0.00    -0.297 OA
ATOM      2  C   UNL     1     -15.451  -2.720   0.000  0.00  0.00    +0.142 C 
ATOM      3  C   UNL     1     -14.152  -1.970   0.000  0.00  0.00    +0.055 C 
ATOM      4  C   UNL     1     -14.152  -0.470   0.000  0.00  0.00    +0.015 C 
ATOM      5  C   UNL     1     -12.853  -2.720   0.000  0.00  0.00    +0.048 C 
ATOM      6  C   UNL     1     -11.554  -1.970   0.000  0.00  0.00    +0.090 C 
ATOM      9  C   UNL     1     -12.518  -0.821   0.000  0.00  0.00    +0.044 C 
ATOM     10  C   UNL     1     -10.255  -2.720   0.000  0.00  0.00    +0.158 C 
ATOM     11  C   UNL     1     -10.255  -4.220   0.000  0.00  0.00    +0.047 C 
ATOM     12  C   UNL     1      -8.956  -4.970   0.000  0.00  0.00    +0.013 C 
ATOM     13  C   UNL     1     -11.554  -4.970   0.000  0.00  0.00    +0.140 C 
ATOM     14  C   UNL     1     -12.853  -4.220   0.000  0.00  0.00    +0.124 C 
ATOM     15  C   UNL     1     -12.853  -5.720   0.000  0.00  0.00    +0.022 C 
ATOM     16  C   UNL     1     -14.152  -4.970   0.000  0.00  0.00    +0.313 C 
ATOM     17  O   UNL     1     -14.152  -6.470   0.000  0.00  0.00    -0.250 OA
ATOM     18  O   UNL     1     -15.451  -4.220   0.000  0.00  0.00    -0.458 OA
ATOM     19  C   UNL     1     -16.750  -4.970   0.000  0.00  0.00    +0.210 C 
ATOM     22  C   UNL     1     -18.049  -4.220   0.000  0.00  0.00    +0.126 C 
ATOM     23  C   UNL     1     -18.562  -5.630   0.000  0.00  0.00    +0.048 C 
ATOM     26  C   UNL     1     -18.049  -2.720   0.000  0.00  0.00    +0.159 C 
ATOM     63  C   UNL     1     -16.750  -1.970   0.000  0.00  0.00    +0.084 C 
ATOM     64  C   UNL     1     -16.750  -0.470   0.000  0.00  0.00    +0.018 C 
ENDROOT
BRANCH   6   7
ATOM      7  O   UNL     1     -10.589  -0.821   0.000  0.00  0.00    -0.386 OA
ATOM      8  H   UNL     1      -9.634  -0.990   0.000  0.00  0.00    +0.210 HD
ENDBRANCH   6   7
BRANCH  19  20
ATOM     20  C   UNL     1     -16.750  -6.470   0.000  0.00  0.00    +0.044 C 
ATOM     21  C   UNL     1     -18.049  -7.220   0.000  0.00  0.00    +0.007 C 
ENDBRANCH  19  20
BRANCH  22  24
ATOM     24  O   UNL     1     -19.526  -3.960   0.000  0.00  0.00    -0.383 OA
ATOM     25  H   UNL     1     -19.858  -3.048   0.000  0.00  0.00    +0.210 HD
ENDBRANCH  22  24
BRANCH  26  27
ATOM     27  O   UNL     1     -19.348  -1.970   0.000  0.00  0.00    -0.388 OA
ATOM     28  H   UNL     1     -19.348  -1.000   0.000  0.00  0.00    +0.210 HD
ENDBRANCH  26  27
BRANCH  13  29
ATOM     29  O   UNL     1     -11.554  -6.470   0.000  0.00  0.00    -0.347 OA
BRANCH  29  30
ATOM     30  C   UNL     1     -10.255  -7.220   0.000  0.00  0.00    +0.254 C 
ATOM     31  C   UNL     1      -8.956  -6.470   0.000  0.00  0.00    +0.098 C 
ATOM     32  C   UNL     1      -7.657  -7.220   0.000  0.00  0.00    +0.099 C 
ATOM     33  C   UNL     1      -6.357  -6.470   0.000  0.00  0.00    +0.044 C 
ATOM     36  C   UNL     1      -7.657  -8.720   0.000  0.00  0.00    +0.175 C 
ATOM     39  C   UNL     1      -8.956  -9.470   0.000  0.00  0.00    +0.149 C 
ATOM     40  C   UNL     1      -8.956  -7.970   0.000  0.00  0.00    +0.041 C 
ATOM     41  O   UNL     1     -10.255  -8.720   0.000  0.00  0.00    -0.346 OA
BRANCH  32  34
ATOM     34  O   UNL     1      -8.956  -7.970   0.000  0.00  0.00    -0.374 OA
ATOM     35  C   UNL     1      -8.956  -9.470   0.000  0.00  0.00    +0.194 C 
ENDBRANCH  32  34
BRANCH  36  37
ATOM     37  O   UNL     1      -6.357  -9.470   0.000  0.00  0.00    -0.386 OA
ATOM     38  H   UNL     1      -6.358 -10.440   0.000  0.00  0.00    +0.210 HD
ENDBRANCH  36  37
ENDBRANCH  29  30
ENDBRANCH  13  29
BRANCH  10  42
ATOM     42  O   UNL     1      -8.956  -1.970   0.000  0.00  0.00    -0.341 OA
BRANCH  42  43
ATOM     43  C   UNL     1      -9.216  -0.493   0.000  0.00  0.00    +0.293 C 
ATOM     44  C   UNL     1     -10.626   0.020   0.000  0.00  0.00    +0.249 C 
ATOM     45  C   UNL     1     -10.886   1.497   0.000  0.00  0.00    +0.104 C 
ATOM     49  C   UNL     1      -9.737   2.461   0.000  0.00  0.00    +0.054 C 
ATOM     50  C   UNL     1      -8.328   1.948   0.000  0.00  0.00    +0.120 C 
ATOM     51  C   UNL     1      -9.476   0.984   0.000  0.00  0.00    +0.038 C 
ATOM     62  O   UNL     1      -8.067   0.471   0.000  0.00  0.00    -0.345 OA
BRANCH  45  46
ATOM     46  N   UNL     1     -12.296   2.010   0.000  0.00  0.00    -0.302 NA
ATOM     47  C   UNL     1     -12.556   3.487   0.000  0.00  0.00    +0.105 C 
ATOM     48  C   UNL     1     -13.445   1.046   0.000  0.00  0.00    +0.105 C 
ENDBRANCH  45  46
BRANCH  44  52
ATOM     52  O   UNL     1      -9.476   0.984   0.000  0.00  0.00    -0.455 OA
BRANCH  52  53
ATOM     53  C   UNL     1      -9.990   2.394   0.000  0.00  0.00    +0.308 C 
ATOM     61  O   UNL     1     -11.467   2.654   0.000  0.00  0.00    -0.251 OA
BRANCH  53  54
ATOM     54  C   UNL     1      -9.025   3.543   0.000  0.00  0.00    +0.121 C 
BRANCH  54  55
ATOM     55  C   UNL     1      -9.538   4.952   0.000  0.00  0.00    +0.014 C 
BRANCH  55  56
ATOM     56  C   UNL     1     -11.016   5.213   0.000  0.00  0.00    -0.010 C 
ATOM     57  C   UNL     1     -12.095   4.171   0.000  0.00  0.00    +0.003 C 
ATOM     58  C   UNL     1     -13.419   4.875   0.000  0.00  0.00    +0.000 C 
ATOM     59  C   UNL     1     -13.159   6.352   0.000  0.00  0.00    +0.000 C 
ATOM     60  C   UNL     1     -11.673   6.561   0.000  0.00  0.00    +0.003 C 
ENDBRANCH  55  56
ENDBRANCH  54  55
ENDBRANCH  53  54
ENDBRANCH  52  53
ENDBRANCH  44  52
ENDBRANCH  42  43
ENDBRANCH  10  42
TORSDOF 16