REMARK  Name = NSC 5113
REMARK  10 active torsions:
REMARK  status: ('A' for Active; 'I' for Inactive)
REMARK    1  A    between atoms: C_2  and  C_3
REMARK    2  A    between atoms: C_2  and  C_4
REMARK    3  A    between atoms: C_10  and  O_11
REMARK    4  A    between atoms: C_12  and  C_13
REMARK    5  A    between atoms: C_13  and  C_14
REMARK    6  A    between atoms: C_15  and  C_16
REMARK    7  A    between atoms: C_15  and  C_17
REMARK    8  A    between atoms: C_19  and  C_21
REMARK    9  A    between atoms: C_23  and  O_24
REMARK   10  A    between atoms: C_25  and  O_26
REMARK                            x       y       z     vdW  Elec       q    Type
REMARK                         _______ _______ _______ _____ _____    ______ ____
ROOT
ATOM      1  O   UNL     1       0.924   4.399   0.000  0.00  0.00    -0.481 OA
ATOM      2  C   UNL     1      -0.375   5.149   0.000  0.00  0.00    +0.124 C 
ATOM      3  C   UNL     1      -0.888   3.740   0.000  0.00  0.00    +0.060 C 
ATOM      4  C   UNL     1      -1.852   5.410   0.000  0.00  0.00    +0.060 C 
ATOM      5  C   UNL     1      -0.375   6.649   0.000  0.00  0.00    +0.020 C 
ATOM      6  C   UNL     1       0.924   7.399   0.000  0.00  0.00    +0.015 C 
ATOM      7  C   UNL     1       2.223   6.649   0.000  0.00  0.00    +0.060 A 
ATOM      8  C   UNL     1       3.522   7.399   0.000  0.00  0.00    +0.153 A 
ATOM      9  C   UNL     1       4.821   6.649   0.000  0.00  0.00    +0.107 A 
ATOM     10  C   UNL     1       4.821   5.149   0.000  0.00  0.00    +0.138 A 
ATOM     13  C   UNL     1       3.522   4.399   0.000  0.00  0.00    +0.041 A 
ATOM     19  C   UNL     1       6.120   7.399   0.000  0.00  0.00    +0.204 A 
ATOM     20  C   UNL     1       6.120   8.899   0.000  0.00  0.00    +0.065 A 
ATOM     21  C   UNL     1       4.821   9.649   0.000  0.00  0.00    +0.208 A 
ATOM     32  O   UNL     1       7.419   6.649   0.000  0.00  0.00    -0.286 OA
ATOM     33  O   UNL     1       3.522   8.899   0.000  0.00  0.00    -0.461 OA
ATOM     34  C   UNL     1       2.223   5.149   0.000  0.00  0.00    +0.139 A 
ENDROOT
BRANCH  20  22
ATOM     22  C   UNL     1       7.419   9.649   0.000  0.00  0.00    -0.008 A 
ATOM     23  C   UNL     1       8.718   8.899   0.000  0.00  0.00    +0.058 A 
ATOM     24  C   UNL     1      10.017   9.649   0.000  0.00  0.00    +0.159 A 
ATOM     27  C   UNL     1      10.017  11.150   0.000  0.00  0.00    +0.158 A 
ATOM     30  C   UNL     1       8.718  11.900   0.000  0.00  0.00    +0.050 A 
ATOM     31  C   UNL     1       7.419  11.150   0.000  0.00  0.00    +0.012 A 
BRANCH  24  25
ATOM     25  O   UNL     1      11.316   8.899   0.000  0.00  0.00    -0.503 OA
ATOM     26  H   UNL     1      11.316   7.963   0.000  0.00  0.00    +0.292 HD
ENDBRANCH  24  25
BRANCH  27  28
ATOM     28  O   UNL     1      11.316  11.900   0.000  0.00  0.00    -0.503 OA
ATOM     29  H   UNL     1      12.128  11.431   0.000  0.00  0.00    +0.292 HD
ENDBRANCH  27  28
ENDBRANCH  20  22
BRANCH  10  11
ATOM     11  O   UNL     1       6.120   4.399   0.000  0.00  0.00    -0.506 OA
ATOM     12  H   UNL     1       6.120   3.463   0.000  0.00  0.00    +0.292 HD
ENDBRANCH  10  11
BRANCH  13  14
ATOM     14  C   UNL     1       3.522   2.900   0.000  0.00  0.00    +0.069 C 
BRANCH  14  15
ATOM     15  C   UNL     1       4.932   2.386   0.000  0.00  0.00    -0.023 C 
ATOM     16  C   UNL     1       5.192   0.909   0.000  0.00  0.00    -0.079 C 
ATOM     17  C   UNL     1       6.602   0.396   0.000  0.00  0.00    +0.038 C 
ATOM     18  C   UNL     1       4.043  -0.055   0.000  0.00  0.00    +0.038 C 
ENDBRANCH  14  15
ENDBRANCH  13  14
TORSDOF 6