REMARK  Name = NSC 72715#1
REMARK  8 active torsions:
REMARK  status: ('A' for Active; 'I' for Inactive)
REMARK    1  A    between atoms: C_2  and  C_3
REMARK    2  A    between atoms: C_14  and  O_15
REMARK    3  A    between atoms: O_15  and  C_16
REMARK    4  A    between atoms: C_17  and  O_18
REMARK    5  A    between atoms: O_18  and  C_19
REMARK    6  A    between atoms: C_26  and  C_27
REMARK    7  A    between atoms: C_27  and  O_29
REMARK    8  A    between atoms: O_29  and  C_30
REMARK                            x       y       z     vdW  Elec       q    Type
REMARK                         _______ _______ _______ _____ _____    ______ ____
ROOT
ATOM      1  O   UNL     1       8.735   3.000   0.000  0.00  0.00    -0.496 OA
ATOM      2  C   UNL     1      10.034   2.250   0.000  0.00  0.00    +0.174 C 
ATOM      3  C   UNL     1      10.034   0.750   0.000  0.00  0.00    +0.052 C 
ATOM      4  C   UNL     1      11.333   3.000   0.000  0.00  0.00    +0.051 C 
ATOM      5  C   UNL     1      12.632   2.250   0.000  0.00  0.00    +0.092 C 
ATOM      6  N   UNL     1      13.931   3.000   0.000  0.00  0.00    -0.293 NA
ATOM      7  C   UNL     1      15.230   2.250   0.000  0.00  0.00    +0.090 C 
ATOM      8  C   UNL     1      16.529   3.000   0.000  0.00  0.00    +0.053 C 
ATOM      9  C   UNL     1      16.529   4.500   0.000  0.00  0.00    -0.016 A 
ATOM     10  C   UNL     1      15.230   5.250   0.000  0.00  0.00    +0.038 A 
ATOM     11  N   UNL     1      15.542   6.717   0.000  0.00  0.00    -0.356 N 
ATOM     12  C   UNL     1      17.034   6.874   0.000  0.00  0.00    +0.051 A 
ATOM     13  C   UNL     1      17.916   8.088   0.000  0.00  0.00    +0.075 A 
ATOM     14  C   UNL     1      19.408   7.931   0.000  0.00  0.00    +0.163 A 
ATOM     17  C   UNL     1      20.018   6.560   0.000  0.00  0.00    +0.162 A 
ATOM     20  C   UNL     1      19.136   5.347   0.000  0.00  0.00    +0.059 A 
ATOM     21  H   UNL     1      14.539   7.832   0.000  0.00  0.00    +0.166 HD
ATOM     22  C   UNL     1      17.644   5.504   0.000  0.00  0.00    +0.007 A 
ATOM     23  C   UNL     1      13.931   4.500   0.000  0.00  0.00    +0.104 C 
ATOM     24  C   UNL     1      12.632   5.250   0.000  0.00  0.00    +0.034 C 
ATOM     25  C   UNL     1      11.333   4.500   0.000  0.00  0.00    +0.039 C 
ATOM     26  C   UNL     1      10.034   5.250   0.000  0.00  0.00    +0.074 C 
ATOM     31  C   UNL     1       8.735   4.500   0.000  0.00  0.00    +0.198 C 
ENDROOT
BRANCH  14  15
ATOM     15  O   UNL     1      20.289   9.144   0.000  0.00  0.00    -0.491 OA
ATOM     16  C   UNL     1      19.679  10.515   0.000  0.00  0.00    +0.277 C 
ENDBRANCH  14  15
BRANCH  17  18
ATOM     18  O   UNL     1      21.509   6.404   0.000  0.00  0.00    -0.491 OA
ATOM     19  C   UNL     1      22.119   5.033   0.000  0.00  0.00    +0.277 C 
ENDBRANCH  17  18
BRANCH  26  27
ATOM     27  C   UNL     1      10.034   6.750   0.000  0.00  0.00    +0.338 C 
ATOM     28  O   UNL     1      11.333   7.500   0.000  0.00  0.00    -0.245 OA
BRANCH  27  29
ATOM     29  O   UNL     1       8.735   7.500   0.000  0.00  0.00    -0.465 OA
ATOM     30  C   UNL     1       8.735   9.000   0.000  0.00  0.00    +0.280 C 
ENDBRANCH  27  29
ENDBRANCH  26  27
TORSDOF 4