REMARK  Name = NSC 56464
REMARK  20 active torsions:
REMARK  status: ('A' for Active; 'I' for Inactive)
REMARK    1  A    between atoms: N_1  and  C_2
REMARK    2  A    between atoms: C_2  and  C_3
REMARK    3  A    between atoms: C_5  and  C_6
REMARK    4  A    between atoms: C_6  and  O_7
REMARK    5  A    between atoms: O_7  and  C_8
REMARK    6  A    between atoms: C_9  and  O_10
REMARK    7  A    between atoms: C_12  and  O_13
REMARK    8  A    between atoms: O_13  and  C_14
REMARK    9  A    between atoms: C_18  and  O_19
REMARK   10  A    between atoms: O_19  and  C_20
REMARK   11  A    between atoms: C_20  and  C_21
REMARK   12  A    between atoms: C_24  and  O_25
REMARK   13  A    between atoms: O_25  and  C_26
REMARK   14  A    between atoms: C_27  and  O_28
REMARK   15  A    between atoms: C_29  and  O_30
REMARK   16  A    between atoms: O_30  and  C_31
REMARK   17  A    between atoms: C_32  and  O_33
REMARK   18  A    between atoms: C_34  and  O_35
REMARK   19  A    between atoms: O_35  and  C_36
REMARK   20  A    between atoms: C_36  and  C_37
REMARK                            x       y       z     vdW  Elec       q    Type
REMARK                         _______ _______ _______ _____ _____    ______ ____
ROOT
ATOM      1  N   UNL     1       6.821  -4.355   0.000  0.00  0.00    -0.298 NA
ATOM      4  C   UNL     1       6.071  -5.654   0.000  0.00  0.00    +0.096 C 
ATOM      5  C   UNL     1       7.571  -5.654   0.000  0.00  0.00    +0.039 C 
ATOM      9  C   UNL     1       9.071  -5.654   0.000  0.00  0.00    +0.127 C 
ATOM     12  C   UNL     1       9.821  -4.354   0.000  0.00  0.00    +0.064 C 
ATOM     13  C   UNL     1       9.071  -3.055   0.000  0.00  0.00    +0.129 C 
ATOM     16  C   UNL     1       7.571  -3.055   0.000  0.00  0.00    +0.022 C 
ATOM     17  C   UNL     1       7.727  -1.564   0.000  0.00  0.00    +0.013 C 
ATOM     18  C   UNL     1       7.117  -0.193   0.000  0.00  0.00    +0.083 C 
ATOM     19  C   UNL     1      11.445  -2.551   0.000  0.00  0.00    +0.155 C 
ATOM     24  C   UNL     1       9.945  -2.551   0.000  0.00  0.00    +0.083 C 
ATOM     25  C   UNL     1       9.788  -4.043   0.000  0.00  0.00    +0.131 C 
ATOM     28  C   UNL     1      12.195  -1.252   0.000  0.00  0.00    +0.190 C 
ATOM     31  C   UNL     1      11.445   0.047   0.000  0.00  0.00    +0.185 C 
ATOM     34  C   UNL     1       9.945   0.047   0.000  0.00  0.00    +0.132 C 
ATOM     37  C   UNL     1       8.331   0.688   0.000  0.00  0.00    +0.218 C 
ATOM     47  C   UNL     1       9.195  -1.252   0.000  0.00  0.00    +0.046 C 
ATOM     48  C   UNL     1       8.321  -4.355   0.000  0.00  0.00    +0.041 C 
ATOM     49  C   UNL     1       8.941  -3.666   0.000  0.00  0.00    +0.075 C 
ENDROOT
BRANCH   1   2
ATOM      2  C   UNL     1       5.877  -3.189   0.000  0.00  0.00    +0.081 C 
ATOM      3  C   UNL     1       4.395  -3.424   0.000  0.00  0.00    +0.020 C 
ENDBRANCH   1   2
BRANCH   9  10
ATOM     10  O   UNL     1       9.821  -6.953   0.000  0.00  0.00    -0.391 OA
ATOM     11  H   UNL     1       9.336  -7.793   0.000  0.00  0.00    +0.210 HD
ENDBRANCH   9  10
BRANCH  13  14
ATOM     14  O   UNL     1       9.071  -1.556   0.000  0.00  0.00    -0.379 OA
ATOM     15  C   UNL     1      10.370  -0.805   0.000  0.00  0.00    +0.194 C 
ENDBRANCH  13  14
BRANCH  25  26
ATOM     26  O   UNL     1      10.903  -5.046   0.000  0.00  0.00    -0.379 OA
ATOM     27  C   UNL     1      10.591  -6.514   0.000  0.00  0.00    +0.194 C 
ENDBRANCH  25  26
BRANCH  28  29
ATOM     29  O   UNL     1      13.695  -1.252   0.000  0.00  0.00    -0.385 OA
ATOM     30  H   UNL     1      14.180  -2.092   0.000  0.00  0.00    +0.210 HD
ENDBRANCH  28  29
BRANCH  31  32
ATOM     32  O   UNL     1      12.195   1.346   0.000  0.00  0.00    -0.374 OA
ATOM     33  C   UNL     1      11.445   2.645   0.000  0.00  0.00    +0.194 C 
ENDBRANCH  31  32
BRANCH  34  35
ATOM     35  O   UNL     1      10.227   1.521   0.000  0.00  0.00    -0.382 OA
ATOM     36  H   UNL     1      11.143   1.839   0.000  0.00  0.00    +0.210 HD
ENDBRANCH  34  35
BRANCH   5   6
ATOM      6  C   UNL     1       7.571  -7.154   0.000  0.00  0.00    +0.170 C 
BRANCH   6   7
ATOM      7  O   UNL     1       8.870  -7.904   0.000  0.00  0.00    -0.382 OA
ATOM      8  C   UNL     1       8.870  -9.404   0.000  0.00  0.00    +0.194 C 
ENDBRANCH   6   7
ENDBRANCH   5   6
BRANCH  19  20
ATOM     20  O   UNL     1      12.195  -3.850   0.000  0.00  0.00    -0.455 OA
BRANCH  20  21
ATOM     21  C   UNL     1      13.695  -3.850   0.000  0.00  0.00    +0.305 C 
ATOM     22  C   UNL     1      14.445  -2.551   0.000  0.00  0.00    +0.136 C 
ATOM     23  O   UNL     1      14.445  -5.149   0.000  0.00  0.00    -0.251 OA
ENDBRANCH  20  21
ENDBRANCH  19  20
BRANCH  37  38
ATOM     38  O   UNL     1       8.144   2.177   0.000  0.00  0.00    -0.454 OA
BRANCH  38  39
ATOM     39  C   UNL     1       6.761   2.759   0.000  0.00  0.00    +0.340 C 
ATOM     46  O   UNL     1       6.574   4.247   0.000  0.00  0.00    -0.245 OA
BRANCH  39  40
ATOM     40  C   UNL     1       5.566   1.852   0.000  0.00  0.00    +0.059 A 
ATOM     41  C   UNL     1       4.183   2.434   0.000  0.00  0.00    +0.015 A 
ATOM     42  C   UNL     1       2.988   1.528   0.000  0.00  0.00    +0.001 A 
ATOM     43  C   UNL     1       3.175   0.040   0.000  0.00  0.00    +0.000 A 
ATOM     44  C   UNL     1       4.558  -0.542   0.000  0.00  0.00    +0.001 A 
ATOM     45  C   UNL     1       5.753   0.364   0.000  0.00  0.00    +0.015 A 
ENDBRANCH  39  40
ENDBRANCH  38  39
ENDBRANCH  37  38
TORSDOF 14