REMARK  Name = NSC 601422#2
REMARK  9 active torsions:
REMARK  status: ('A' for Active; 'I' for Inactive)
REMARK    1  A    between atoms: O_1  and  C_2
REMARK    2  A    between atoms: C_2  and  C_3
REMARK    3  A    between atoms: C_3  and  C_4
REMARK    4  A    between atoms: C_4  and  C_5
REMARK    5  A    between atoms: C_4  and  C_9
REMARK    6  A    between atoms: C_4  and  O_12
REMARK    7  A    between atoms: C_5  and  C_6
REMARK    8  A    between atoms: C_6  and  O_8
REMARK    9  A    between atoms: C_9  and  O_11
REMARK                            x       y       z     vdW  Elec       q    Type
REMARK                         _______ _______ _______ _____ _____    ______ ____
ROOT
ATOM      5  C   UNL     1       0.356   5.381   0.000  0.00  0.00    +0.182 C 
ENDROOT
BRANCH   5  11
ATOM     11  C   UNL     1       0.304   6.880   0.000  0.00  0.00    +0.338 C 
ATOM     12  O   UNL     1       1.576   7.675   0.000  0.00  0.00    -0.248 OA
BRANCH  11  13
ATOM     13  O   UNL     1      -1.020   7.585   0.000  0.00  0.00    -0.479 OA
ATOM     14  H   UNL     1      -1.053   8.521   0.000  0.00  0.00    +0.295 HD
ENDBRANCH  11  13
ENDBRANCH   5  11
BRANCH   5  15
ATOM     15  O   UNL     1       0.409   3.882   0.000  0.00  0.00    -0.376 OA
ATOM     16  H   UNL     1      -0.414   3.368   0.000  0.00  0.00    +0.211 HD
ENDBRANCH   5  15
BRANCH   5   4
ATOM      4  C   UNL     1      -1.143   5.329   0.000  0.00  0.00    +0.167 C 
BRANCH   4   3
ATOM      3  C   UNL     1      -1.606   3.902   0.000  0.00  0.00    +0.308 C 
ATOM     17  O   UNL     1      -3.074   3.591   0.000  0.00  0.00    -0.251 OA
BRANCH   3   1
ATOM      1  O   UNL     1      -0.603   2.788   0.000  0.00  0.00    -0.481 OA
ATOM      2  H   UNL     1      -0.893   1.897   0.000  0.00  0.00    +0.295 HD
ENDBRANCH   3   1
ENDBRANCH   4   3
ENDBRANCH   5   4
BRANCH   5   6
ATOM      6  C   UNL     1       1.855   5.433   0.000  0.00  0.00    +0.167 C 
BRANCH   6   7
ATOM      7  C   UNL     1       2.417   4.043   0.000  0.00  0.00    +0.308 C 
ATOM      8  O   UNL     1       3.903   3.834   0.000  0.00  0.00    -0.251 OA
BRANCH   7   9
ATOM      9  O   UNL     1       1.494   2.861   0.000  0.00  0.00    -0.481 OA
ATOM     10  H   UNL     1       0.566   2.991   0.000  0.00  0.00    +0.295 HD
ENDBRANCH   7   9
ENDBRANCH   6   7
ENDBRANCH   5   6
TORSDOF 9