REMARK  Name = NSC 72861
REMARK  7 active torsions:
REMARK  status: ('A' for Active; 'I' for Inactive)
REMARK    1  A    between atoms: N_2  and  C_3
REMARK    2  A    between atoms: C_8  and  O_10
REMARK    3  A    between atoms: O_10  and  C_11
REMARK    4  A    between atoms: C_11  and  C_12
REMARK    5  A    between atoms: C_12  and  C_13
REMARK    6  A    between atoms: C_12  and  C_15
REMARK    7  A    between atoms: C_13  and  O_14
REMARK                            x       y       z     vdW  Elec       q    Type
REMARK                         _______ _______ _______ _____ _____    ______ ____
ROOT
ATOM     11  C   UNL     1      -4.555  -5.291   0.000  0.00  0.00    +0.317 C 
ATOM     22  O   UNL     1      -5.305  -3.992   0.000  0.00  0.00    -0.250 OA
ENDROOT
BRANCH  11  10
ATOM     10  O   UNL     1      -5.305  -6.590   0.000  0.00  0.00    -0.460 OA
BRANCH  10   8
ATOM      1  O   UNL     1     -10.591  -4.004   0.000  0.00  0.00    -0.775 OA
ATOM      2  N   UNL     1     -10.850  -5.481   0.000  0.00  0.00    +0.219 N 
ATOM      3  C   UNL     1     -12.327  -5.742   0.000  0.00  0.00    +0.190 C 
ATOM      4  C   UNL     1      -9.553  -6.228   0.000  0.00  0.00    +0.067 C 
ATOM      5  C   UNL     1     -10.691  -7.878   0.000  0.00  0.00    +0.060 C 
ATOM      6  C   UNL     1      -9.941  -9.177   0.000  0.00  0.00    +0.060 C 
ATOM      7  C   UNL     1      -8.104  -5.840   0.000  0.00  0.00    +0.099 C 
ATOM      8  C   UNL     1      -6.805  -6.590   0.000  0.00  0.00    +0.187 C 
ATOM      9  C   UNL     1      -8.104  -7.340   0.000  0.00  0.00    +0.099 C 
ATOM     23  C   UNL     1      -9.553  -7.728   0.000  0.00  0.00    +0.067 C 
ENDBRANCH  10   8
ENDBRANCH  11  10
BRANCH  11  12
ATOM     12  C   UNL     1      -3.055  -5.291   0.000  0.00  0.00    +0.153 C 
BRANCH  12  16
ATOM     16  C   UNL     1      -2.305  -3.992   0.000  0.00  0.00    -0.032 A 
ATOM     17  C   UNL     1      -0.805  -3.992   0.000  0.00  0.00    +0.004 A 
ATOM     18  C   UNL     1      -0.055  -2.693   0.000  0.00  0.00    +0.000 A 
ATOM     19  C   UNL     1      -0.805  -1.394   0.000  0.00  0.00    +0.000 A 
ATOM     20  C   UNL     1      -2.305  -1.394   0.000  0.00  0.00    +0.000 A 
ATOM     21  C   UNL     1      -3.055  -2.693   0.000  0.00  0.00    +0.004 A 
ENDBRANCH  12  16
BRANCH  12  13
ATOM     13  C   UNL     1      -2.305  -6.590   0.000  0.00  0.00    +0.175 C 
BRANCH  13  14
ATOM     14  O   UNL     1      -0.805  -6.590   0.000  0.00  0.00    -0.394 OA
ATOM     15  H   UNL     1      -0.320  -7.430   0.000  0.00  0.00    +0.209 HD
ENDBRANCH  13  14
ENDBRANCH  12  13
ENDBRANCH  11  12
TORSDOF 6