REMARK  Name = NSC 61809
REMARK  8 active torsions:
REMARK  status: ('A' for Active; 'I' for Inactive)
REMARK    1  A    between atoms: C_1  and  N_2
REMARK    2  A    between atoms: N_2  and  C_24
REMARK    3  A    between atoms: C_5  and  O_6
REMARK    4  A    between atoms: O_6  and  C_7
REMARK    5  A    between atoms: C_7  and  C_9
REMARK    6  A    between atoms: C_9  and  C_10
REMARK    7  A    between atoms: C_9  and  C_16
REMARK    8  A    between atoms: C_16  and  O_17
REMARK                            x       y       z     vdW  Elec       q    Type
REMARK                         _______ _______ _______ _____ _____    ______ ____
ROOT
ATOM      6  O   UNL     1      -7.269   0.944   0.000  0.00  0.00    -0.460 OA
ENDROOT
BRANCH   6   5
ATOM      1  C   UNL     1      -6.704  -0.740   0.000  0.00  0.00    +0.193 C 
ATOM      2  N   UNL     1      -5.205  -0.702   0.000  0.00  0.00    +0.247 N 
ATOM      3  C   UNL     1      -3.393   0.009   0.000  0.00  0.00    +0.102 C 
ATOM      4  C   UNL     1      -4.745   0.659   0.000  0.00  0.00    +0.102 C 
ATOM      5  C   UNL     1      -6.096   0.009   0.000  0.00  0.00    +0.187 C 
ATOM     19  C   UNL     1      -6.430  -1.454   0.000  0.00  0.00    +0.102 C 
ATOM     20  C   UNL     1      -3.059  -1.454   0.000  0.00  0.00    +0.201 C 
ATOM     21  O   UNL     1      -2.511  -2.850   0.000  0.00  0.00    -0.357 OA
ATOM     22  C   UNL     1      -3.995  -2.626   0.000  0.00  0.00    +0.201 C 
ATOM     23  C   UNL     1      -5.495  -2.626   0.000  0.00  0.00    +0.102 C 
ATOM     24  C   UNL     1      -5.502   0.768   0.000  0.00  0.00    +0.193 C 
ENDBRANCH   6   5
BRANCH   6   7
ATOM      7  C   UNL     1      -8.665   0.396   0.000  0.00  0.00    +0.317 C 
ATOM      8  O   UNL     1      -8.889  -1.087   0.000  0.00  0.00    -0.250 OA
BRANCH   7   9
ATOM      9  C   UNL     1      -9.838   1.331   0.000  0.00  0.00    +0.153 C 
BRANCH   9  10
ATOM     10  C   UNL     1     -11.234   0.783   0.000  0.00  0.00    -0.032 A 
ATOM     11  C   UNL     1     -12.407   1.718   0.000  0.00  0.00    +0.004 A 
ATOM     12  C   UNL     1     -13.803   1.170   0.000  0.00  0.00    +0.000 A 
ATOM     13  C   UNL     1     -14.027  -0.313   0.000  0.00  0.00    +0.000 A 
ATOM     14  C   UNL     1     -12.854  -1.248   0.000  0.00  0.00    +0.000 A 
ATOM     15  C   UNL     1     -11.458  -0.700   0.000  0.00  0.00    +0.004 A 
ENDBRANCH   9  10
BRANCH   9  16
ATOM     16  C   UNL     1      -9.614   2.814   0.000  0.00  0.00    +0.175 C 
BRANCH  16  17
ATOM     17  O   UNL     1     -10.787   3.750   0.000  0.00  0.00    -0.394 OA
ATOM     18  H   UNL     1     -10.564   5.233   0.000  0.00  0.00    +0.209 HD
ENDBRANCH  16  17
ENDBRANCH   9  16
ENDBRANCH   7   9
ENDBRANCH   6   7
TORSDOF 6