REMARK  Name = NSC 59263
REMARK  10 active torsions:
REMARK  status: ('A' for Active; 'I' for Inactive)
REMARK    1  A    between atoms: C_1  and  O_2
REMARK    2  A    between atoms: C_4  and  C_5
REMARK    3  A    between atoms: C_5  and  O_7
REMARK    4  A    between atoms: O_7  and  C_8
REMARK    5  A    between atoms: C_9  and  O_10
REMARK    6  A    between atoms: C_11  and  O_12
REMARK    7  A    between atoms: C_14  and  C_15
REMARK    8  A    between atoms: C_15  and  O_16
REMARK    9  A    between atoms: C_20  and  O_21
REMARK   10  A    between atoms: C_22  and  O_23
REMARK                            x       y       z     vdW  Elec       q    Type
REMARK                         _______ _______ _______ _____ _____    ______ ____
ROOT
ATOM      8  O   UNL     1      -4.172  -7.774   0.000  0.00  0.00    -0.418 OA
ENDROOT
BRANCH   8   9
ATOM      9  C   UNL     1      -5.471  -8.524   0.000  0.00  0.00    +0.178 A 
ATOM     10  C   UNL     1      -5.471 -10.025   0.000  0.00  0.00    +0.202 A 
ATOM     13  C   UNL     1      -6.770 -10.775   0.000  0.00  0.00    +0.163 A 
ATOM     16  C   UNL     1      -8.069 -10.025   0.000  0.00  0.00    +0.064 A 
ATOM     17  C   UNL     1      -8.069  -8.525   0.000  0.00  0.00    +0.066 A 
ATOM     22  C   UNL     1      -6.770  -7.774   0.000  0.00  0.00    +0.065 A 
BRANCH  10  11
ATOM     11  O   UNL     1      -4.172 -10.775   0.000  0.00  0.00    -0.501 OA
ATOM     12  H   UNL     1      -4.172 -11.711   0.000  0.00  0.00    +0.292 HD
ENDBRANCH  10  11
BRANCH  13  14
ATOM     14  O   UNL     1      -6.770 -12.275   0.000  0.00  0.00    -0.503 OA
ATOM     15  H   UNL     1      -7.581 -12.743   0.000  0.00  0.00    +0.292 HD
ENDBRANCH  13  14
BRANCH  17  18
ATOM     18  C   UNL     1      -9.368  -7.775   0.000  0.00  0.00    +0.337 C 
ATOM     21  O   UNL     1     -10.667  -8.525   0.000  0.00  0.00    -0.245 OA
BRANCH  18  19
ATOM     19  O   UNL     1      -9.368  -6.275   0.000  0.00  0.00    -0.477 OA
ATOM     20  H   UNL     1      -8.556  -5.806   0.000  0.00  0.00    +0.295 HD
ENDBRANCH  18  19
ENDBRANCH  17  18
ENDBRANCH   8   9
BRANCH   8   6
ATOM      6  C   UNL     1      -4.172  -6.274   0.000  0.00  0.00    +0.345 C 
ATOM      7  O   UNL     1      -5.471  -5.524   0.000  0.00  0.00    -0.245 OA
BRANCH   6   5
ATOM      1  C   UNL     1      -1.574  -3.275   0.000  0.00  0.00    +0.163 A 
ATOM      4  C   UNL     1      -2.873  -4.024   0.000  0.00  0.00    +0.064 A 
ATOM      5  C   UNL     1      -2.873  -5.524   0.000  0.00  0.00    +0.067 A 
ATOM     23  C   UNL     1      -1.573  -6.274   0.000  0.00  0.00    +0.064 A 
ATOM     24  C   UNL     1      -0.275  -5.524   0.000  0.00  0.00    +0.163 A 
ATOM     27  C   UNL     1      -0.275  -4.024   0.000  0.00  0.00    +0.201 A 
BRANCH   1   2
ATOM      2  O   UNL     1      -1.574  -1.775   0.000  0.00  0.00    -0.503 OA
ATOM      3  H   UNL     1      -0.762  -1.306   0.000  0.00  0.00    +0.292 HD
ENDBRANCH   1   2
BRANCH  24  25
ATOM     25  O   UNL     1       1.025  -6.274   0.000  0.00  0.00    -0.503 OA
ATOM     26  H   UNL     1       1.024  -7.211   0.000  0.00  0.00    +0.292 HD
ENDBRANCH  24  25
BRANCH  27  28
ATOM     28  O   UNL     1       1.025  -3.275   0.000  0.00  0.00    -0.501 OA
ATOM     29  H   UNL     1       1.836  -3.743   0.000  0.00  0.00    +0.292 HD
ENDBRANCH  27  28
ENDBRANCH   6   5
ENDBRANCH   8   6
TORSDOF 10