REMARK  Name = NSC 601422#1
REMARK  5 active torsions:
REMARK  status: ('A' for Active; 'I' for Inactive)
REMARK    1  A    between atoms: C_8  and  C_9
REMARK    2  A    between atoms: C_9  and  O_11
REMARK    3  A    between atoms: N_21  and  C_22
REMARK    4  A    between atoms: C_25  and  O_26
REMARK    5  A    between atoms: O_26  and  C_27
REMARK                            x       y       z     vdW  Elec       q    Type
REMARK                         _______ _______ _______ _____ _____    ______ ____
ROOT
ATOM      1  C   UNL     1      -2.710   2.794   0.000  0.00  0.00    +0.004 A 
ATOM      2  C   UNL     1      -1.916   1.522   0.000  0.00  0.00    -0.038 A 
ATOM      3  C   UNL     1      -0.416   1.574   0.000  0.00  0.00    +0.056 C 
ATOM      4  C   UNL     1       0.378   0.302   0.000  0.00  0.00    +0.082 C 
ATOM      5  C   UNL     1       1.877   0.354   0.000  0.00  0.00    +0.088 C 
ATOM      6  C   UNL     1       3.268  -0.208   0.000  0.00  0.00    +0.118 C 
ATOM     11  C   UNL     1       3.163  -1.704   0.000  0.00  0.00    +0.039 C 
ATOM     12  C   UNL     1       1.968  -2.243   0.000  0.00  0.00    +0.101 C 
ATOM     13  C   UNL     1       0.469  -2.295   0.000  0.00  0.00    +0.207 C 
ATOM     14  O   UNL     1      -0.554  -3.392   0.000  0.00  0.00    -0.358 OA
ATOM     15  C   UNL     1      -1.879  -2.687   0.000  0.00  0.00    +0.185 C 
ATOM     16  C   UNL     1      -1.825  -1.075   0.000  0.00  0.00    +0.119 C 
ATOM     17  N   UNL     1       2.672  -0.918   0.000  0.00  0.00    -0.293 NA
ATOM     18  C   UNL     1       4.158  -1.127   0.000  0.00  0.00    +0.105 C 
ATOM     19  N   UNL     1      -0.326  -1.023   0.000  0.00  0.00    -0.262 NA
ATOM     20  C   UNL     1      -2.620   0.197   0.000  0.00  0.00    +0.017 A 
ATOM     21  C   UNL     1      -4.119   0.145   0.000  0.00  0.00    +0.125 A 
ATOM     24  C   UNL     1      -4.914   1.417   0.000  0.00  0.00    +0.046 A 
ATOM     25  C   UNL     1      -4.209   2.742   0.000  0.00  0.00    +0.004 A 
ENDROOT
BRANCH   6   7
ATOM      7  C   UNL     1       4.540   0.587   0.000  0.00  0.00    +0.309 C 
ATOM      8  O   UNL     1       4.488   2.086   0.000  0.00  0.00    -0.251 OA
BRANCH   7   9
ATOM      9  O   UNL     1       5.865  -0.118   0.000  0.00  0.00    -0.480 OA
ATOM     10  H   UNL     1       5.897  -1.054   0.000  0.00  0.00    +0.295 HD
ENDBRANCH   7   9
ENDBRANCH   6   7
BRANCH  21  22
ATOM     22  O   UNL     1      -4.823  -1.179   0.000  0.00  0.00    -0.495 OA
ATOM     23  C   UNL     1      -4.029  -2.451   0.000  0.00  0.00    +0.277 C 
ENDBRANCH  21  22
TORSDOF 3