REMARK  Name = NSC 72942#2
REMARK  2 active torsions:
REMARK  status: ('A' for Active; 'I' for Inactive)
REMARK    1  A    between atoms: S_1  and  O_2
REMARK    2  A    between atoms: S_1  and  O_4
REMARK                            x       y       z     vdW  Elec       q    Type
REMARK                         _______ _______ _______ _____ _____    ______ ____
ROOT
ATOM      1  S   UNL     1      -1.713   8.520   0.000  0.00  0.00    +0.205 S 
ATOM      4  O   UNL     1      -1.713   7.020   0.000  0.00  0.00    -0.118 OA
ATOM      7  O   UNL     1      -1.713  10.020   0.000  0.00  0.00    -0.118 OA
ENDROOT
BRANCH   1   2
ATOM      2  O   UNL     1      -0.213   8.520   0.000  0.00  0.00    -0.231 OA
ATOM      3  H   UNL     1       0.272   7.680   0.000  0.00  0.00    +0.247 HD
ENDBRANCH   1   2
BRANCH   1   5
ATOM      5  O   UNL     1      -3.213   8.520   0.000  0.00  0.00    -0.231 OA
ATOM      6  H   UNL     1      -3.698   9.360   0.000  0.00  0.00    +0.247 HD
ENDBRANCH   1   5
TORSDOF 2