REMARK  Name = NSC 526417
REMARK  18 active torsions:
REMARK  status: ('A' for Active; 'I' for Inactive)
REMARK    1  A    between atoms: C_1  and  C_2
REMARK    2  A    between atoms: C_7  and  N_8
REMARK    3  A    between atoms: C_10  and  C_12
REMARK    4  A    between atoms: C_26  and  C_77
REMARK    5  A    between atoms: N_27  and  C_76
REMARK    6  A    between atoms: N_31  and  C_72
REMARK    7  A    between atoms: C_34  and  C_71
REMARK    8  A    between atoms: C_39  and  N_40
REMARK    9  A    between atoms: C_42  and  C_44
REMARK   10  A    between atoms: C_58  and  C_68
REMARK   11  A    between atoms: N_59  and  C_67
REMARK   12  A    between atoms: N_63  and  C_64
REMARK   13  A    between atoms: C_68  and  C_69
REMARK   14  A    between atoms: C_68  and  C_70
REMARK   15  A    between atoms: C_73  and  S_74
REMARK   16  A    between atoms: S_74  and  C_75
REMARK   17  A    between atoms: C_77  and  C_78
REMARK   18  A    between atoms: C_77  and  C_79
REMARK                            x       y       z     vdW  Elec       q    Type
REMARK                         _______ _______ _______ _____ _____    ______ ____
ROOT
ATOM      1  C   UNL     1      15.088  14.659   0.000  0.00  0.00    +0.038 C 
ATOM      2  C   UNL     1      13.588  14.659   0.000  0.00  0.00    +0.156 C 
ATOM      3  N   UNL     1      12.838  15.958   0.000  0.00  0.00    -0.303 N 
ATOM      4  H   UNL     1      11.338  15.958   0.000  0.00  0.00    +0.149 HD
ATOM      5  C   UNL     1      13.588  17.257   0.000  0.00  0.00    +0.237 C 
ATOM      6  O   UNL     1      15.088  17.257   0.000  0.00  0.00    -0.274 OA
ATOM      7  C   UNL     1      12.838  18.556   0.000  0.00  0.00    +0.197 C 
ATOM     22  C   UNL     1      11.338  18.556   0.000  0.00  0.00    +0.264 C 
ATOM     23  O   UNL     1      11.338  20.056   0.000  0.00  0.00    -0.461 OA
ATOM     24  C   UNL     1      10.039  20.806   0.000  0.00  0.00    +0.328 C 
ATOM     25  O   UNL     1       9.195  19.566   0.000  0.00  0.00    -0.249 OA
ATOM     26  C   UNL     1       8.866  21.740   0.000  0.00  0.00    +0.187 C 
ATOM     27  N   UNL     1       7.567  20.990   0.000  0.00  0.00    -0.289 N 
ATOM     28  C   UNL     1       7.789  19.507   0.000  0.00  0.00    +0.238 C 
ATOM     29  O   UNL     1       9.243  19.876   0.000  0.00  0.00    -0.273 OA
ATOM     30  C   UNL     1       7.789  18.007   0.000  0.00  0.00    +0.184 C 
ATOM     31  N   UNL     1       6.307  18.237   0.000  0.00  0.00    -0.290 N 
ATOM     32  C   UNL     1       4.842  17.916   0.000  0.00  0.00    +0.236 C 
ATOM     33  O   UNL     1       4.257  19.297   0.000  0.00  0.00    -0.274 OA
ATOM     34  C   UNL     1       3.591  17.087   0.000  0.00  0.00    +0.156 C 
ATOM     35  N   UNL     1       2.724  15.863   0.000  0.00  0.00    -0.303 N 
ATOM     36  H   UNL     1       1.362  16.490   0.000  0.00  0.00    +0.149 HD
ATOM     37  C   UNL     1       2.359  14.408   0.000  0.00  0.00    +0.237 C 
ATOM     38  O   UNL     1       0.862  14.501   0.000  0.00  0.00    -0.274 OA
ATOM     39  C   UNL     1       2.543  12.920   0.000  0.00  0.00    +0.197 C 
ATOM     54  C   UNL     1       3.253  11.598   0.000  0.00  0.00    +0.264 C 
ATOM     55  O   UNL     1       4.392  10.622   0.000  0.00  0.00    -0.461 OA
ATOM     56  C   UNL     1       5.806  10.124   0.000  0.00  0.00    +0.328 C 
ATOM     57  O   UNL     1       5.576   8.642   0.000  0.00  0.00    -0.249 OA
ATOM     58  C   UNL     1       7.306  10.170   0.000  0.00  0.00    +0.187 C 
ATOM     59  N   UNL     1       8.687  10.755   0.000  0.00  0.00    -0.289 N 
ATOM     60  C   UNL     1       9.764  11.799   0.000  0.00  0.00    +0.237 C 
ATOM     61  O   UNL     1      10.988  10.932   0.000  0.00  0.00    -0.274 OA
ATOM     62  C   UNL     1      10.391  13.162   0.000  0.00  0.00    +0.172 C 
ATOM     63  N   UNL     1      11.338  13.360   0.000  0.00  0.00    -0.291 N 
ATOM     64  C   UNL     1      11.445  14.856   0.000  0.00  0.00    +0.133 C 
ATOM     65  C   UNL     1      10.483  14.659   0.000  0.00  0.00    +0.102 C 
ATOM     66  S   UNL     1      10.029  16.088   0.000  0.00  0.00    -0.142 S 
ATOM     67  C   UNL     1       9.516   9.504   0.000  0.00  0.00    +0.133 C 
ATOM     71  C   UNL     1       2.547  18.164   0.000  0.00  0.00    +0.038 C 
ATOM     72  C   UNL     1       6.261  19.736   0.000  0.00  0.00    +0.133 C 
ATOM     73  C   UNL     1       9.088  17.257   0.000  0.00  0.00    +0.133 C 
ATOM     76  C   UNL     1       6.215  21.642   0.000  0.00  0.00    +0.133 C 
ATOM     80  C   UNL     1      12.838  13.360   0.000  0.00  0.00    +0.236 C 
ATOM     81  O   UNL     1      13.588  12.061   0.000  0.00  0.00    -0.274 OA
ENDROOT
BRANCH   7   8
ATOM      8  N   UNL     1      13.588  19.855   0.000  0.00  0.00    -0.296 N 
ATOM      9  H   UNL     1      15.088  19.855   0.000  0.00  0.00    +0.150 HD
ATOM     10  C   UNL     1      12.838  21.154   0.000  0.00  0.00    +0.265 C 
ATOM     11  O   UNL     1      11.338  21.154   0.000  0.00  0.00    -0.268 OA
BRANCH  10  12
ATOM     12  C   UNL     1      13.588  22.453   0.000  0.00  0.00    +0.144 A 
ATOM     13  N   UNL     1      12.838  23.752   0.000  0.00  0.00    -0.239 NA
ATOM     14  C   UNL     1      13.588  25.051   0.000  0.00  0.00    +0.090 A 
ATOM     15  C   UNL     1      15.088  25.051   0.000  0.00  0.00    +0.089 A 
ATOM     16  N   UNL     1      15.838  23.752   0.000  0.00  0.00    -0.251 NA
ATOM     17  C   UNL     1      15.838  26.350   0.000  0.00  0.00    +0.030 A 
ATOM     18  C   UNL     1      15.088  27.649   0.000  0.00  0.00    +0.002 A 
ATOM     19  C   UNL     1      13.588  27.649   0.000  0.00  0.00    +0.002 A 
ATOM     20  C   UNL     1      12.838  26.350   0.000  0.00  0.00    +0.030 A 
ATOM     21  C   UNL     1      15.088  22.453   0.000  0.00  0.00    +0.144 A 
ENDBRANCH  10  12
ENDBRANCH   7   8
BRANCH  39  40
ATOM     40  N   UNL     1       1.114  12.465   0.000  0.00  0.00    -0.296 N 
ATOM     41  H   UNL     1       0.005  13.476   0.000  0.00  0.00    +0.150 HD
ATOM     42  C   UNL     1       0.793  11.000   0.000  0.00  0.00    +0.265 C 
ATOM     43  O   UNL     1       1.901   9.989   0.000  0.00  0.00    -0.268 OA
BRANCH  42  44
ATOM     44  C   UNL     1      -0.637  10.545   0.000  0.00  0.00    +0.144 A 
ATOM     45  N   UNL     1      -0.958   9.080   0.000  0.00  0.00    -0.239 NA
ATOM     46  C   UNL     1      -2.387   8.625   0.000  0.00  0.00    +0.090 A 
ATOM     47  C   UNL     1      -3.496   9.636   0.000  0.00  0.00    +0.089 A 
ATOM     48  N   UNL     1      -3.175  11.101   0.000  0.00  0.00    -0.251 NA
ATOM     49  C   UNL     1      -4.925   9.181   0.000  0.00  0.00    +0.030 A 
ATOM     50  C   UNL     1      -5.246   7.716   0.000  0.00  0.00    +0.002 A 
ATOM     51  C   UNL     1      -4.137   6.705   0.000  0.00  0.00    +0.002 A 
ATOM     52  C   UNL     1      -2.708   7.160   0.000  0.00  0.00    +0.030 A 
ATOM     53  C   UNL     1      -1.745  11.556   0.000  0.00  0.00    +0.144 A 
ENDBRANCH  42  44
ENDBRANCH  39  40
BRANCH  58  68
ATOM     68  C   UNL     1       7.627   8.705   0.000  0.00  0.00    +0.014 C 
ATOM     69  C   UNL     1       9.056   8.250   0.000  0.00  0.00    +0.009 C 
ATOM     70  C   UNL     1       6.518   7.694   0.000  0.00  0.00    +0.009 C 
ENDBRANCH  58  68
BRANCH  26  77
ATOM     77  C   UNL     1       8.977  23.236   0.000  0.00  0.00    +0.014 C 
ATOM     78  C   UNL     1      10.329  23.887   0.000  0.00  0.00    +0.009 C 
ATOM     79  C   UNL     1       7.738  24.081   0.000  0.00  0.00    +0.009 C 
ENDBRANCH  26  77
BRANCH  73  74
ATOM     74  S   UNL     1      10.064  18.396   0.000  0.00  0.00    -0.148 S 
ATOM     75  C   UNL     1      11.539  18.120   0.000  0.00  0.00    +0.085 C 
ENDBRANCH  73  74
TORSDOF 7