REMARK  Name = NSC 67574#2
REMARK  2 active torsions:
REMARK  status: ('A' for Active; 'I' for Inactive)
REMARK    1  A    between atoms: S_1  and  O_2
REMARK    2  A    between atoms: S_1  and  O_4
REMARK                            x       y       z     vdW  Elec       q    Type
REMARK                         _______ _______ _______ _____ _____    ______ ____
ROOT
ATOM      1  S   UNL     1      17.112  -1.901   0.000  0.00  0.00    +0.205 S 
ATOM      4  O   UNL     1      15.813  -1.151   0.000  0.00  0.00    -0.118 OA
ATOM      7  O   UNL     1      18.411  -2.651   0.000  0.00  0.00    -0.118 OA
ENDROOT
BRANCH   1   2
ATOM      2  O   UNL     1      16.362  -3.200   0.000  0.00  0.00    -0.231 OA
ATOM      3  H   UNL     1      15.392  -3.200   0.000  0.00  0.00    +0.247 HD
ENDBRANCH   1   2
BRANCH   1   5
ATOM      5  O   UNL     1      17.862  -0.602   0.000  0.00  0.00    -0.231 OA
ATOM      6  H   UNL     1      18.832  -0.602   0.000  0.00  0.00    +0.247 HD
ENDBRANCH   1   5
TORSDOF 2