REMARK  Name = NSC 62709
REMARK  16 active torsions:
REMARK  status: ('A' for Active; 'I' for Inactive)
REMARK    1  A    between atoms: C_2  and  C_3
REMARK    2  A    between atoms: C_7  and  O_8
REMARK    3  A    between atoms: C_9  and  O_10
REMARK    4  A    between atoms: O_10  and  C_11
REMARK    5  A    between atoms: C_15  and  C_16
REMARK    6  A    between atoms: C_15  and  C_17
REMARK    7  A    between atoms: C_21  and  N_22
REMARK    8  A    between atoms: C_23  and  C_24
REMARK    9  A    between atoms: C_27  and  O_28
REMARK   10  A    between atoms: O_28  and  C_29
REMARK   11  A    between atoms: C_30  and  O_31
REMARK   12  A    between atoms: O_31  and  C_32
REMARK   13  A    between atoms: C_33  and  O_34
REMARK   14  A    between atoms: C_35  and  C_36
REMARK   15  A    between atoms: CA_37  and  C_38
REMARK   16  A    between atoms: C_38  and  OXT_39
REMARK                            x       y       z     vdW  Elec       q    Type
REMARK                         _______ _______ _______ _____ _____    ______ ____
ROOT
ATOM      1  N   UNL     1      -4.172 -13.775   0.000  0.00  0.00    -0.236 NA
ATOM      2  C   UNL     1      -4.172 -12.275   0.000  0.00  0.00    +0.111 A 
ATOM     22  C   UNL     1      -5.471 -11.525   0.000  0.00  0.00    +0.061 A 
ATOM     26  C   UNL     1      -6.770 -12.275   0.000  0.00  0.00    +0.014 A 
ATOM     39  C   UNL     1      -6.770 -13.775   0.000  0.00  0.00    -0.008 A 
ATOM     40  C   UNL     1      -8.069 -14.525   0.000  0.00  0.00    +0.047 C 
ATOM     41  CA  UNL     1      -5.471 -14.525   0.000  0.00  0.00    +0.152 A 
ENDROOT
BRANCH   2   3
ATOM      3  C   UNL     1      -2.873 -11.525   0.000  0.00  0.00    +0.092 A 
ATOM      4  C   UNL     1      -1.573 -12.275   0.000  0.00  0.00    +0.031 A 
ATOM      5  C   UNL     1      -0.275 -11.525   0.000  0.00  0.00    +0.016 A 
ATOM      6  C   UNL     1      -0.275 -10.025   0.000  0.00  0.00    +0.048 A 
ATOM      7  C   UNL     1       1.025  -9.274   0.000  0.00  0.00    +0.170 A 
ATOM     10  C   UNL     1       1.025  -7.774   0.000  0.00  0.00    +0.189 A 
ATOM     13  C   UNL     1      -0.275  -7.024   0.000  0.00  0.00    +0.133 A 
ATOM     14  C   UNL     1      -1.573  -7.774   0.000  0.00  0.00    +0.116 A 
ATOM     15  N   UNL     1      -2.688  -6.771   0.000  0.00  0.00    -0.251 NA
ATOM     16  C   UNL     1      -2.078  -5.401   0.000  0.00  0.00    +0.147 C 
ATOM     17  C   UNL     1      -1.766  -3.933   0.000  0.00  0.00    +0.062 C 
ATOM     18  C   UNL     1      -3.505  -4.937   0.000  0.00  0.00    +0.062 C 
ATOM     19  N   UNL     1      -0.586  -5.557   0.000  0.00  0.00    -0.249 NA
ATOM     20  C   UNL     1      -1.573  -9.274   0.000  0.00  0.00    +0.102 A 
ATOM     21  N   UNL     1      -2.873 -10.025   0.000  0.00  0.00    -0.243 NA
BRANCH   7   8
ATOM      8  O   UNL     1       2.324 -10.025   0.000  0.00  0.00    -0.503 OA
ATOM      9  H   UNL     1       2.324 -10.961   0.000  0.00  0.00    +0.292 HD
ENDBRANCH   7   8
BRANCH  10  11
ATOM     11  O   UNL     1       2.324  -7.024   0.000  0.00  0.00    -0.489 OA
ATOM     12  C   UNL     1       2.324  -5.524   0.000  0.00  0.00    +0.277 C 
ENDBRANCH  10  11
ENDBRANCH   2   3
BRANCH  26  27
ATOM     27  C   UNL     1      -8.069 -11.525   0.000  0.00  0.00    +0.030 A 
ATOM     28  C   UNL     1      -8.069 -10.025   0.000  0.00  0.00    +0.016 A 
ATOM     29  C   UNL     1      -9.368  -9.274   0.000  0.00  0.00    +0.050 A 
ATOM     30  C   UNL     1     -10.667 -10.025   0.000  0.00  0.00    +0.165 A 
ATOM     33  C   UNL     1     -10.667 -11.525   0.000  0.00  0.00    +0.204 A 
ATOM     36  C   UNL     1      -9.368 -12.275   0.000  0.00  0.00    +0.170 A 
BRANCH  30  31
ATOM     31  O   UNL     1     -11.966  -9.274   0.000  0.00  0.00    -0.491 OA
ATOM     32  C   UNL     1     -11.966  -7.774   0.000  0.00  0.00    +0.277 C 
ENDBRANCH  30  31
BRANCH  33  34
ATOM     34  O   UNL     1     -11.966 -12.275   0.000  0.00  0.00    -0.488 OA
ATOM     35  C   UNL     1     -13.265 -11.525   0.000  0.00  0.00    +0.277 C 
ENDBRANCH  33  34
BRANCH  36  37
ATOM     37  O   UNL     1      -9.368 -13.775   0.000  0.00  0.00    -0.503 OA
ATOM     38  H   UNL     1     -10.179 -14.243   0.000  0.00  0.00    +0.292 HD
ENDBRANCH  36  37
ENDBRANCH  26  27
BRANCH  22  23
ATOM     23  N   UNL     1      -5.471 -10.025   0.000  0.00  0.00    -0.356 N 
ATOM     24  H   UNL     1      -6.323  -9.532   0.000  0.00  0.00    +0.142 HD
ATOM     25  H   UNL     1      -4.618  -9.532   0.000  0.00  0.00    +0.142 HD
ENDBRANCH  22  23
BRANCH  41  42
ATOM     42  C   UNL     1      -5.471 -16.025   0.000  0.00  0.00    +0.356 C 
ATOM     45  O   UNL     1      -6.770 -16.775   0.000  0.00  0.00    -0.243 OA
BRANCH  42  43
ATOM     43  OXT UNL     1      -4.172 -16.775   0.000  0.00  0.00    -0.476 OA
ATOM     44  HXT UNL     1      -4.172 -17.711   0.000  0.00  0.00    +0.295 HD
ENDBRANCH  42  43
ENDBRANCH  41  42
TORSDOF 10