REMARK  Name = NSC 661755#1
REMARK  19 active torsions:
REMARK  status: ('A' for Active; 'I' for Inactive)
REMARK    1  A    between atoms: C_3  and  C_4
REMARK    2  A    between atoms: C_6  and  C_7
REMARK    3  A    between atoms: C_9  and  O_10
REMARK    4  A    between atoms: C_12  and  O_13
REMARK    5  A    between atoms: C_14  and  C_15
REMARK    6  A    between atoms: C_18  and  C_19
REMARK    7  A    between atoms: C_21  and  O_22
REMARK    8  A    between atoms: O_22  and  C_23
REMARK    9  A    between atoms: C_25  and  O_26
REMARK   10  A    between atoms: C_27  and  C_28
REMARK   11  A    between atoms: C_29  and  O_30
REMARK   12  A    between atoms: C_32  and  O_33
REMARK   13  A    between atoms: O_33  and  C_34
REMARK   14  A    between atoms: C_36  and  C_37
REMARK   15  A    between atoms: C_40  and  C_41
REMARK   16  A    between atoms: C_42  and  O_43
REMARK   17  A    between atoms: C_45  and  O_46
REMARK   18  A    between atoms: C_48  and  C_53
REMARK   19  A    between atoms: C_50  and  C_51
REMARK                            x       y       z     vdW  Elec       q    Type
REMARK                         _______ _______ _______ _____ _____    ______ ____
ROOT
ATOM     18  C   UNL     1       9.468  -2.900   0.000  0.00  0.00    -0.005 A 
ATOM     19  C   UNL     1       8.169  -3.650   0.000  0.00  0.00    -0.003 A 
ATOM     20  C   UNL     1       6.870  -2.900   0.000  0.00  0.00    +0.012 A 
ATOM     21  C   UNL     1       5.571  -3.650   0.000  0.00  0.00    -0.046 A 
ATOM     22  C   UNL     1       4.272  -2.900   0.000  0.00  0.00    +0.044 C 
ATOM     23  C   UNL     1       5.571  -5.149   0.000  0.00  0.00    +0.049 A 
ATOM     24  C   UNL     1       6.870  -5.899   0.000  0.00  0.00    +0.132 A 
ATOM     27  C   UNL     1       8.169  -5.149   0.000  0.00  0.00    +0.066 A 
ATOM     28  C   UNL     1       9.468  -5.899   0.000  0.00  0.00    +0.136 A 
ATOM     31  C   UNL     1      10.767  -5.149   0.000  0.00  0.00    +0.028 A 
ATOM     64  C   UNL     1      10.767  -3.650   0.000  0.00  0.00    +0.021 A 
ENDROOT
BRANCH  18  17
ATOM      1  C   UNL     1       8.169  -0.649   0.000  0.00  0.00    -0.027 A 
ATOM      2  C   UNL     1       6.870  -1.400   0.000  0.00  0.00    +0.054 C 
ATOM      3  C   UNL     1       5.571  -0.649   0.000  0.00  0.00    +0.055 C 
ATOM      4  C   UNL     1       4.272  -1.400   0.000  0.00  0.00    +0.024 C 
ATOM      5  N   UNL     1       5.571   0.851   0.000  0.00  0.00    -0.307 NA
ATOM      6  H   UNL     1       4.688   1.360   0.000  0.00  0.00    +0.123 HD
ATOM      7  C   UNL     1       6.870   1.601   0.000  0.00  0.00    +0.085 C 
ATOM      8  C   UNL     1       6.870   3.100   0.000  0.00  0.00    +0.029 C 
ATOM      9  C   UNL     1       8.169   0.851   0.000  0.00  0.00    +0.015 A 
ATOM     10  C   UNL     1       9.468   1.601   0.000  0.00  0.00    +0.125 A 
ATOM     13  C   UNL     1      10.767   0.851   0.000  0.00  0.00    +0.091 A 
ATOM     14  C   UNL     1      10.767  -0.649   0.000  0.00  0.00    +0.128 A 
ATOM     17  C   UNL     1       9.468  -1.400   0.000  0.00  0.00    +0.028 A 
BRANCH  10  11
ATOM     11  O   UNL     1       9.468   3.100   0.000  0.00  0.00    -0.506 OA
ATOM     12  H   UNL     1      10.280   3.569   0.000  0.00  0.00    +0.292 HD
ENDBRANCH  10  11
BRANCH  14  15
ATOM     15  O   UNL     1      12.066  -1.400   0.000  0.00  0.00    -0.506 OA
ATOM     16  H   UNL     1      12.066  -2.336   0.000  0.00  0.00    +0.292 HD
ENDBRANCH  14  15
ENDBRANCH  18  17
BRANCH  31  32
ATOM     32  C   UNL     1      12.066  -5.899   0.000  0.00  0.00    +0.028 A 
ATOM     33  C   UNL     1      13.365  -5.149   0.000  0.00  0.00    +0.136 A 
ATOM     36  C   UNL     1      14.664  -5.899   0.000  0.00  0.00    +0.066 A 
ATOM     37  C   UNL     1      15.964  -5.149   0.000  0.00  0.00    +0.132 A 
ATOM     40  C   UNL     1      17.262  -5.899   0.000  0.00  0.00    +0.049 A 
ATOM     41  C   UNL     1      17.262  -7.399   0.000  0.00  0.00    -0.046 A 
ATOM     42  C   UNL     1      18.562  -8.149   0.000  0.00  0.00    +0.044 C 
ATOM     43  C   UNL     1      15.964  -8.149   0.000  0.00  0.00    +0.012 A 
ATOM     44  C   UNL     1      14.664  -7.399   0.000  0.00  0.00    -0.003 A 
ATOM     45  C   UNL     1      13.365  -8.149   0.000  0.00  0.00    -0.005 A 
ATOM     63  C   UNL     1      12.066  -7.399   0.000  0.00  0.00    +0.021 A 
BRANCH  45  46
ATOM     46  C   UNL     1      13.365  -9.649   0.000  0.00  0.00    +0.028 A 
ATOM     47  C   UNL     1      12.066 -10.400   0.000  0.00  0.00    +0.128 A 
ATOM     50  C   UNL     1      12.066 -11.900   0.000  0.00  0.00    +0.091 A 
ATOM     51  C   UNL     1      13.365 -12.650   0.000  0.00  0.00    +0.125 A 
ATOM     54  C   UNL     1      14.664 -11.900   0.000  0.00  0.00    +0.015 A 
ATOM     55  C   UNL     1      15.964 -12.650   0.000  0.00  0.00    +0.085 C 
ATOM     56  N   UNL     1      17.262 -11.900   0.000  0.00  0.00    -0.307 NA
ATOM     57  H   UNL     1      18.146 -12.409   0.000  0.00  0.00    +0.123 HD
ATOM     58  C   UNL     1      17.262 -10.400   0.000  0.00  0.00    +0.055 C 
ATOM     59  C   UNL     1      18.562  -9.649   0.000  0.00  0.00    +0.024 C 
ATOM     60  C   UNL     1      15.964  -9.649   0.000  0.00  0.00    +0.054 C 
ATOM     61  C   UNL     1      15.964 -14.150   0.000  0.00  0.00    +0.029 C 
ATOM     62  C   UNL     1      14.664 -10.400   0.000  0.00  0.00    -0.027 A 
BRANCH  47  48
ATOM     48  O   UNL     1      10.767  -9.649   0.000  0.00  0.00    -0.506 OA
ATOM     49  H   UNL     1      10.767  -8.713   0.000  0.00  0.00    +0.292 HD
ENDBRANCH  47  48
BRANCH  51  52
ATOM     52  O   UNL     1      13.365 -14.150   0.000  0.00  0.00    -0.506 OA
ATOM     53  H   UNL     1      12.554 -14.618   0.000  0.00  0.00    +0.292 HD
ENDBRANCH  51  52
ENDBRANCH  45  46
BRANCH  33  34
ATOM     34  O   UNL     1      13.365  -3.650   0.000  0.00  0.00    -0.505 OA
ATOM     35  H   UNL     1      14.177  -3.181   0.000  0.00  0.00    +0.292 HD
ENDBRANCH  33  34
BRANCH  37  38
ATOM     38  O   UNL     1      15.964  -3.650   0.000  0.00  0.00    -0.494 OA
ATOM     39  C   UNL     1      14.664  -2.900   0.000  0.00  0.00    +0.277 C 
ENDBRANCH  37  38
ENDBRANCH  31  32
BRANCH  24  25
ATOM     25  O   UNL     1       6.870  -7.399   0.000  0.00  0.00    -0.494 OA
ATOM     26  C   UNL     1       5.571  -8.149   0.000  0.00  0.00    +0.277 C 
ENDBRANCH  24  25
BRANCH  28  29
ATOM     29  O   UNL     1       9.468  -7.399   0.000  0.00  0.00    -0.505 OA
ATOM     30  H   UNL     1       8.657  -7.868   0.000  0.00  0.00    +0.292 HD
ENDBRANCH  28  29
TORSDOF 11