REMARK  Name = NSC 67392
REMARK  4 active torsions:
REMARK  status: ('A' for Active; 'I' for Inactive)
REMARK    1  A    between atoms: C_4  and  C_5
REMARK    2  A    between atoms: C_5  and  C_6
REMARK    3  A    between atoms: C_5  and  C_7
REMARK    4  A    between atoms: C_11  and  C_12
REMARK                            x       y       z     vdW  Elec       q    Type
REMARK                         _______ _______ _______ _____ _____    ______ ____
ROOT
ATOM      1  C   UNL     1      -0.196   0.913   0.000  0.00  0.00    +0.006 C 
ATOM      2  C   UNL     1       0.610  -0.352   0.000  0.00  0.00    +0.012 C 
ATOM      3  C   UNL     1      -0.889  -0.417   0.000  0.00  0.00    -0.016 C 
ATOM      7  C   UNL     1       0.162  -1.488   0.000  0.00  0.00    +0.082 C 
ATOM      8  C   UNL     1       1.505  -0.819   0.000  0.00  0.00    +0.137 C 
ATOM      9  O   UNL     1       2.835  -1.511   0.000  0.00  0.00    -0.297 OA
ATOM     10  C   UNL     1       1.283   0.665   0.000  0.00  0.00    +0.056 C 
ATOM     11  C   UNL     1       2.782   0.730   0.000  0.00  0.00    +0.016 C 
ENDROOT
BRANCH   3   4
ATOM      4  C   UNL     1      -2.373  -0.639   0.000  0.00  0.00    -0.010 C 
ATOM      5  C   UNL     1      -2.922  -2.035   0.000  0.00  0.00    +0.008 C 
ATOM      6  C   UNL     1      -3.306   0.535   0.000  0.00  0.00    +0.008 C 
ENDBRANCH   3   4
TORSDOF 1