REMARK  Name = NSC 5897
REMARK  6 active torsions:
REMARK  status: ('A' for Active; 'I' for Inactive)
REMARK    1  A    between atoms: C_5  and  C_6
REMARK    2  A    between atoms: C_7  and  O_8
REMARK    3  A    between atoms: C_11  and  C_12
REMARK    4  A    between atoms: C_11  and  C_16
REMARK    5  A    between atoms: C_12  and  O_14
REMARK    6  A    between atoms: O_14  and  C_15
REMARK                            x       y       z     vdW  Elec       q    Type
REMARK                         _______ _______ _______ _____ _____    ______ ____
ROOT
ATOM      6  C   UNL     1       1.625   1.069   0.000  0.00  0.00    +0.111 C 
ATOM      7  C   UNL     1       0.130   0.939   0.000  0.00  0.00    +0.175 C 
ATOM     10  C   UNL     1      -0.208  -0.522   0.000  0.00  0.00    +0.188 C 
ATOM     11  O   UNL     1       1.078  -1.295   0.000  0.00  0.00    -0.418 OA
ATOM     12  C   UNL     1      -1.589  -1.108   0.000  0.00  0.00    +0.112 C 
ATOM     23  C   UNL     1       2.210  -0.312   0.000  0.00  0.00    +0.349 C 
ATOM     24  O   UNL     1       3.672  -0.650   0.000  0.00  0.00    -0.244 OA
ENDROOT
BRANCH   6   5
ATOM      1  C   UNL     1       2.444   4.952   0.000  0.00  0.00    +0.001 A 
ATOM      2  C   UNL     1       3.944   4.926   0.000  0.00  0.00    +0.000 A 
ATOM      3  C   UNL     1       4.671   3.613   0.000  0.00  0.00    +0.001 A 
ATOM      4  C   UNL     1       3.898   2.328   0.000  0.00  0.00    +0.009 A 
ATOM      5  C   UNL     1       2.398   2.355   0.000  0.00  0.00    -0.007 A 
ATOM     25  C   UNL     1       1.671   3.667   0.000  0.00  0.00    +0.009 A 
ENDBRANCH   6   5
BRANCH  12  17
ATOM     17  C   UNL     1      -1.772  -2.596   0.000  0.00  0.00    -0.007 A 
ATOM     18  C   UNL     1      -0.575  -3.500   0.000  0.00  0.00    +0.009 A 
ATOM     19  C   UNL     1      -0.758  -4.988   0.000  0.00  0.00    +0.001 A 
ATOM     20  C   UNL     1      -2.139  -5.574   0.000  0.00  0.00    +0.000 A 
ATOM     21  C   UNL     1      -3.337  -4.671   0.000  0.00  0.00    +0.001 A 
ATOM     22  C   UNL     1      -3.153  -3.182   0.000  0.00  0.00    +0.009 A 
ENDBRANCH  12  17
BRANCH   7   8
ATOM      8  O   UNL     1      -0.853   2.072   0.000  0.00  0.00    -0.503 OA
ATOM      9  H   UNL     1      -0.548   2.958   0.000  0.00  0.00    +0.292 HD
ENDBRANCH   7   8
BRANCH  12  13
ATOM     13  C   UNL     1      -2.786  -0.204   0.000  0.00  0.00    +0.343 C 
ATOM     14  O   UNL     1      -4.167  -0.790   0.000  0.00  0.00    -0.245 OA
BRANCH  13  15
ATOM     15  O   UNL     1      -2.603   1.284   0.000  0.00  0.00    -0.464 OA
ATOM     16  C   UNL     1      -3.800   2.188   0.000  0.00  0.00    +0.280 C 
ENDBRANCH  13  15
ENDBRANCH  12  13
TORSDOF 5