REMARK  Name = NSC 5863
REMARK  0 active torsions:
REMARK  status: ('A' for Active; 'I' for Inactive)
REMARK                            x       y       z     vdW  Elec       q    Type
REMARK                         _______ _______ _______ _____ _____    ______ ____
ROOT
ATOM      1  C   UNL     1      -4.422  -2.250   0.000  0.00  0.00    +0.281 A 
ATOM      2  C   UNL     1      -5.721  -3.000   0.000  0.00  0.00    +0.065 A 
ATOM      3  C   UNL     1      -5.721  -4.500   0.000  0.00  0.00    +0.053 A 
ATOM      4  C   UNL     1      -7.021  -5.250   0.000  0.00  0.00    +0.026 A 
ATOM      5  C   UNL     1      -8.319  -4.500   0.000  0.00  0.00    +0.002 A 
ATOM      6  C   UNL     1      -8.319  -3.000   0.000  0.00  0.00    +0.001 A 
ATOM      7  N   UNL     1      -4.422  -5.250   0.000  0.00  0.00    -0.345 N 
ATOM      8  H   UNL     1      -4.422  -6.750   0.000  0.00  0.00    +0.167 HD
ATOM      9  C   UNL     1      -3.123  -4.500   0.000  0.00  0.00    +0.200 A 
ATOM     10  C   UNL     1      -7.021  -2.250   0.000  0.00  0.00    +0.015 A 
ATOM     11  N   UNL     1      -3.123  -3.000   0.000  0.00  0.00    -0.199 NA
ATOM     12  O   UNL     1      -4.422  -0.750   0.000  0.00  0.00    -0.265 OA
ENDROOT
TORSDOF 0