REMARK  Name = 658494
REMARK  5 active torsions:
REMARK  status: ('A' for Active; 'I' for Inactive)
REMARK    1  A    between atoms: N_2  and  C_15
REMARK    2  A    between atoms: N_4  and  C_32
REMARK    3  A    between atoms: N_6  and  C_28
REMARK    4  A    between atoms: C_8  and  C_10
REMARK    5  A    between atoms: C_28  and  C_30
REMARK                            x       y       z     vdW  Elec       q    Type
REMARK                         _______ _______ _______ _____ _____    ______ ____
ROOT
ATOM      1  C   UNL     1       0.802 -10.851   0.000  0.00  0.00    +0.342 C 
ATOM      2  O   UNL     1       1.806 -11.965   0.000  0.00  0.00    -0.248 OA
ATOM      3  C   UNL     1      -0.690 -11.008   0.000  0.00  0.00    +0.173 C 
ATOM      4  C   UNL     1      -1.440 -12.307   0.000  0.00  0.00    +0.056 C 
ATOM     12  N   UNL     1      -1.300  -9.637   0.000  0.00  0.00    -0.190 N 
ATOM     13  C   UNL     1      -2.767  -9.325   0.000  0.00  0.00    +0.235 C 
ATOM     14  C   UNL     1      -0.185  -8.633   0.000  0.00  0.00    +0.384 C 
ATOM     15  N   UNL     1      -0.342  -7.142   0.000  0.00  0.00    -0.008 NA
ATOM     19  N   UNL     1       1.114  -9.383   0.000  0.00  0.00    -0.130 N 
ENDROOT
BRANCH  19  20
ATOM     20  C   UNL     1       2.357  -8.545   0.000  0.00  0.00    +0.182 C 
ATOM     21  C   UNL     1       2.253  -7.048   0.000  0.00  0.00    +0.136 C 
ATOM     22  C   UNL     1       0.904  -6.391   0.000  0.00  0.00    +0.351 C 
ATOM     23  O   UNL     1       0.800  -4.894   0.000  0.00  0.00    -0.421 OA
ATOM     24  C   UNL     1       2.043  -4.056   0.000  0.00  0.00    +0.143 A 
ATOM     25  C   UNL     1       1.939  -2.559   0.000  0.00  0.00    +0.047 A 
ATOM     26  C   UNL     1       3.182  -1.720   0.000  0.00  0.00    +0.004 A 
ATOM     27  C   UNL     1       4.531  -2.378   0.000  0.00  0.00    +0.001 A 
ATOM     28  C   UNL     1       4.635  -3.874   0.000  0.00  0.00    +0.015 A 
ATOM     29  C   UNL     1       3.392  -4.713   0.000  0.00  0.00    +0.065 A 
ATOM     30  O   UNL     1      -0.339  -7.230   0.000  0.00  0.00    -0.244 OA
ATOM     31  C   UNL     1       3.496  -6.210   0.000  0.00  0.00    +0.206 C 
ATOM     32  O   UNL     1       4.845  -6.867   0.000  0.00  0.00    -0.286 OA
ENDBRANCH  19  20
BRANCH   4   5
ATOM      5  C   UNL     1      -2.940 -12.307   0.000  0.00  0.00    -0.003 A 
ATOM      6  C   UNL     1      -3.690 -11.008   0.000  0.00  0.00    +0.048 A 
ATOM      7 CL   UNL     1      -2.940  -9.709   0.000  0.00  0.00    -0.083 Cl
ATOM      8  C   UNL     1      -5.190 -11.008   0.000  0.00  0.00    +0.020 A 
ATOM      9  C   UNL     1      -5.940 -12.307   0.000  0.00  0.00    +0.001 A 
ATOM     10  C   UNL     1      -5.190 -13.606   0.000  0.00  0.00    +0.001 A 
ATOM     11  C   UNL     1      -3.690 -13.606   0.000  0.00  0.00    +0.009 A 
ENDBRANCH   4   5
BRANCH  15  16
ATOM     16  C   UNL     1      -1.712  -6.532   0.000  0.00  0.00    +0.306 C 
ATOM     17  C   UNL     1      -2.926  -7.413   0.000  0.00  0.00    +0.132 C 
ATOM     18  O   UNL     1      -1.869  -5.040   0.000  0.00  0.00    -0.254 OA
ENDBRANCH  15  16
TORSDOF 3