REMARK  Name = 67574
REMARK  20 active torsions:
REMARK  status: ('A' for Active; 'I' for Inactive)
REMARK    1  A    between atoms: C_7  and  C_43
REMARK    2  A    between atoms: C_7  and  O_45
REMARK    3  A    between atoms: C_11  and  C_34
REMARK    4  A    between atoms: C_11  and  C_61
REMARK    5  A    between atoms: C_25  and  C_46
REMARK    6  A    between atoms: C_30  and  O_48
REMARK    7  A    between atoms: C_36  and  O_40
REMARK    8  A    between atoms: C_37  and  O_42
REMARK    9  A    between atoms: C_37  and  C_57
REMARK   10  A    between atoms: O_40  and  C_41
REMARK   11  A    between atoms: C_43  and  C_44
REMARK   12  A    between atoms: C_46  and  C_47
REMARK   13  A    between atoms: O_48  and  C_49
REMARK   14  A    between atoms: C_49  and  C_51
REMARK   15  A    between atoms: S_52  and  O_54
REMARK   16  A    between atoms: S_52  and  O_56
REMARK   17  A    between atoms: C_57  and  O_59
REMARK   18  A    between atoms: O_59  and  C_60
REMARK   19  A    between atoms: C_61  and  O_63
REMARK   20  A    between atoms: O_63  and  C_64
REMARK                            x       y       z     vdW  Elec       q    Type
REMARK                         _______ _______ _______ _____ _____    ______ ____
ROOT
ATOM      1  S   UNL     1      17.112  -1.901   0.000  0.00  0.00    +0.205 S 
ATOM      4  O   UNL     1      15.813  -1.151   0.000  0.00  0.00    -0.118 OA
ATOM      7  O   UNL     1      18.411  -2.651   0.000  0.00  0.00    -0.118 OA
ENDROOT
BRANCH   1   2
ATOM      2  O   UNL     1      16.362  -3.200   0.000  0.00  0.00    -0.231 OA
ATOM      3  H   UNL     1      15.392  -3.200   0.000  0.00  0.00    +0.247 HD
ENDBRANCH   1   2
BRANCH   1   5
ATOM      5  O   UNL     1      17.862  -0.602   0.000  0.00  0.00    -0.231 OA
ATOM      6  H   UNL     1      18.832  -0.602   0.000  0.00  0.00    +0.247 HD
ENDBRANCH   1   5
TORSDOF 2