REMARK  Name = 67690
REMARK  5 active torsions:
REMARK  status: ('A' for Active; 'I' for Inactive)
REMARK    1  A    between atoms: C_10  and  N_26
REMARK    2  A    between atoms: C_14  and  C_27
REMARK    3  A    between atoms: C_15  and  C_17
REMARK    4  A    between atoms: C_21  and  C_29
REMARK    5  A    between atoms: C_29  and  O_31
REMARK                            x       y       z     vdW  Elec       q    Type
REMARK                         _______ _______ _______ _____ _____    ______ ____
ROOT
ATOM      7  N   UNL     1      -6.421  -6.899   0.000  0.00  0.00    -0.281 N 
ATOM      8  H   UNL     1      -7.228  -6.334   0.000  0.00  0.00    +0.155 HD
ATOM      9  C   UNL     1      -6.421  -8.399   0.000  0.00  0.00    +0.249 C 
ATOM     10  O   UNL     1      -7.721  -9.149   0.000  0.00  0.00    -0.270 OA
ENDROOT
BRANCH   7   6
ATOM      1  C   UNL     1       0.521  -4.978   0.000  0.00  0.00    +0.009 A 
ATOM      2  C   UNL     1      -0.921  -4.565   0.000  0.00  0.00    -0.014 A 
ATOM      3  C   UNL     1      -2.193  -5.360   0.000  0.00  0.00    -0.014 A 
ATOM      4  C   UNL     1      -2.453  -6.837   0.000  0.00  0.00    +0.010 A 
ATOM      5  C   UNL     1      -3.863  -7.350   0.000  0.00  0.00    +0.024 A 
ATOM      6  C   UNL     1      -5.012  -6.386   0.000  0.00  0.00    +0.034 A 
ATOM     27  C   UNL     1      -4.751  -4.909   0.000  0.00  0.00    +0.028 A 
ATOM     28  C   UNL     1      -3.342  -4.395   0.000  0.00  0.00    -0.034 A 
ATOM     29  C   UNL     1      -2.780  -3.005   0.000  0.00  0.00    +0.071 C 
ATOM     30  C   UNL     1      -1.284  -3.109   0.000  0.00  0.00    -0.035 A 
ATOM     31  C   UNL     1      -0.205  -2.067   0.000  0.00  0.00    +0.004 A 
ATOM     32  C   UNL     1       1.237  -2.481   0.000  0.00  0.00    +0.000 A 
ATOM     33  C   UNL     1       1.600  -3.936   0.000  0.00  0.00    +0.001 A 
ENDBRANCH   7   6
BRANCH   9  11
ATOM     11  C   UNL     1      -5.122  -9.149   0.000  0.00  0.00    +0.045 A 
ATOM     12  C   UNL     1      -3.823  -8.399   0.000  0.00  0.00    +0.013 A 
ATOM     13  C   UNL     1      -2.524  -9.149   0.000  0.00  0.00    +0.001 A 
ATOM     14  C   UNL     1      -2.524 -10.649   0.000  0.00  0.00    +0.001 A 
ATOM     15  C   UNL     1      -3.823 -11.399   0.000  0.00  0.00    +0.009 A 
ATOM     16  C   UNL     1      -5.122 -10.649   0.000  0.00  0.00    -0.005 A 
BRANCH  16  17
ATOM     17  C   UNL     1      -6.421 -11.399   0.000  0.00  0.00    -0.003 A 
ATOM     18  C   UNL     1      -7.721 -10.649   0.000  0.00  0.00    +0.009 A 
ATOM     19  C   UNL     1      -9.020 -11.399   0.000  0.00  0.00    +0.001 A 
ATOM     20  C   UNL     1      -9.020 -12.899   0.000  0.00  0.00    +0.001 A 
ATOM     21  C   UNL     1      -7.720 -13.649   0.000  0.00  0.00    +0.015 A 
ATOM     22  C   UNL     1      -6.421 -12.899   0.000  0.00  0.00    +0.067 A 
BRANCH  22  23
ATOM     23  C   UNL     1      -5.122 -13.649   0.000  0.00  0.00    +0.337 C 
ATOM     26  O   UNL     1      -5.122 -15.149   0.000  0.00  0.00    -0.245 OA
BRANCH  23  24
ATOM     24  O   UNL     1      -3.823 -12.899   0.000  0.00  0.00    -0.477 OA
ATOM     25  H   UNL     1      -3.012 -13.367   0.000  0.00  0.00    +0.295 HD
ENDBRANCH  23  24
ENDBRANCH  22  23
ENDBRANCH  16  17
ENDBRANCH   9  11
TORSDOF 5