REMARK  Name = 669356
REMARK  22 active torsions:
REMARK  status: ('A' for Active; 'I' for Inactive)
REMARK    1  A    between atoms: C_2  and  C_3
REMARK    2  A    between atoms: C_9  and  C_10
REMARK    3  A    between atoms: N_15  and  C_16
REMARK    4  A    between atoms: N_15  and  C_47
REMARK    5  A    between atoms: C_16  and  C_17
REMARK    6  A    between atoms: C_16  and  C_19
REMARK    7  A    between atoms: C_19  and  C_20
REMARK    8  A    between atoms: C_19  and  C_21
REMARK    9  A    between atoms: C_22  and  C_23
REMARK   10  A    between atoms: C_22  and  C_25
REMARK   11  A    between atoms: C_22  and  N_42
REMARK   12  A    between atoms: C_25  and  C_26
REMARK   13  A    between atoms: C_25  and  C_27
REMARK   14  A    between atoms: C_28  and  C_29
REMARK   15  A    between atoms: C_28  and  C_31
REMARK   16  A    between atoms: C_28  and  N_43
REMARK   17  A    between atoms: C_31  and  C_32
REMARK   18  A    between atoms: C_31  and  C_33
REMARK   19  A    between atoms: N_34  and  C_35
REMARK   20  A    between atoms: C_35  and  C_36
REMARK   21  A    between atoms: N_43  and  C_44
REMARK   22  A    between atoms: N_43  and  C_45
REMARK                            x       y       z     vdW  Elec       q    Type
REMARK                         _______ _______ _______ _____ _____    ______ ____
ROOT
ATOM      1 CL   UNL     1      -3.552   4.424   0.000  0.00  0.00    -0.145 Cl
ATOM      2  H   UNL     1      -2.222   4.424   0.000  0.00  0.00    +0.145 HD
ENDROOT
TORSDOF 0