REMARK  Name = 664181
REMARK  8 active torsions:
REMARK  status: ('A' for Active; 'I' for Inactive)
REMARK    1  A    between atoms: C_3  and  C_17
REMARK    2  A    between atoms: C_6  and  C_7
REMARK    3  A    between atoms: C_7  and  O_8
REMARK    4  A    between atoms: C_7  and  C_9
REMARK    5  A    between atoms: C_7  and  C_10
REMARK    6  A    between atoms: C_17  and  O_18
REMARK    7  A    between atoms: C_17  and  C_19
REMARK    8  A    between atoms: C_17  and  C_23
REMARK                            x       y       z     vdW  Elec       q    Type
REMARK                         _______ _______ _______ _____ _____    ______ ____
ROOT
ATOM      1  C   UNL     1       0.039   0.787   0.000  0.00  0.00    +0.146 C 
ATOM      2  C   UNL     1       1.267  -0.075   0.000  0.00  0.00    +0.105 C 
ATOM     14  C   UNL     1       0.826  -1.509   0.000  0.00  0.00    +0.015 C 
ATOM     15  C   UNL     1      -0.673  -1.533   0.000  0.00  0.00    +0.015 C 
ATOM     16  C   UNL     1      -1.160  -0.114   0.000  0.00  0.00    +0.105 C 
ATOM     28  O   UNL     1       0.015   2.287   0.000  0.00  0.00    -0.297 OA
ENDROOT
BRANCH   2   3
ATOM      3  C   UNL     1       2.686   0.411   0.000  0.00  0.00    +0.266 C 
BRANCH   3   4
ATOM      4  C   UNL     1       3.342  -1.504   0.000  0.00  0.00    +0.427 C 
ATOM      5  F   UNL     1       3.829  -2.923   0.000  0.00  0.00    -0.167 F 
ATOM      6  F   UNL     1       4.761  -1.018   0.000  0.00  0.00    -0.167 F 
ATOM      7  F   UNL     1       1.924  -1.990   0.000  0.00  0.00    -0.167 F 
ENDBRANCH   3   4
BRANCH   3   8
ATOM      8  C   UNL     1       4.105   0.898   0.000  0.00  0.00    +0.427 C 
ATOM      9  F   UNL     1       5.524   1.385   0.000  0.00  0.00    -0.167 F 
ATOM     10  F   UNL     1       5.235  -0.088   0.000  0.00  0.00    -0.167 F 
ATOM     11  F   UNL     1       4.393   2.370   0.000  0.00  0.00    -0.167 F 
ENDBRANCH   3   8
BRANCH   3  12
ATOM     12  O   UNL     1       2.199   1.830   0.000  0.00  0.00    -0.373 OA
ATOM     13  H   UNL     1       2.837   2.562   0.000  0.00  0.00    +0.211 HD
ENDBRANCH   3  12
ENDBRANCH   2   3
BRANCH  16  17
ATOM     17  C   UNL     1      -2.594   0.326   0.000  0.00  0.00    +0.266 C 
BRANCH  17  18
ATOM     18  C   UNL     1      -4.530   0.921   0.000  0.00  0.00    +0.427 C 
ATOM     19  F   UNL     1      -5.963   1.361   0.000  0.00  0.00    -0.167 F 
ATOM     20  F   UNL     1      -5.628  -0.101   0.000  0.00  0.00    -0.167 F 
ATOM     21  F   UNL     1      -4.865   2.383   0.000  0.00  0.00    -0.167 F 
ENDBRANCH  17  18
BRANCH  17  22
ATOM     22  C   UNL     1      -3.034  -1.108   0.000  0.00  0.00    +0.427 C 
ATOM     23  F   UNL     1      -3.475  -2.542   0.000  0.00  0.00    -0.167 F 
ATOM     24  F   UNL     1      -1.600  -1.548   0.000  0.00  0.00    -0.167 F 
ATOM     25  F   UNL     1      -4.468  -0.667   0.000  0.00  0.00    -0.167 F 
ENDBRANCH  17  22
BRANCH  17  26
ATOM     26  O   UNL     1      -2.153   1.760   0.000  0.00  0.00    -0.373 OA
ATOM     27  H   UNL     1      -1.208   1.977   0.000  0.00  0.00    +0.211 HD
ENDBRANCH  17  26
ENDBRANCH  16  17
TORSDOF 8