REMARK  Name = 667251
REMARK  6 active torsions:
REMARK  status: ('A' for Active; 'I' for Inactive)
REMARK    1  A    between atoms: C_1  and  C_7
REMARK    2  A    between atoms: C_7  and  C_8
REMARK    3  A    between atoms: C_10  and  C_11
REMARK    4  A    between atoms: C_15  and  N_17
REMARK    5  A    between atoms: N_17  and  C_18
REMARK    6  A    between atoms: N_17  and  C_19
REMARK                            x       y       z     vdW  Elec       q    Type
REMARK                         _______ _______ _______ _____ _____    ______ ____
ROOT
ATOM      2  C   UNL     1       5.899   0.924   0.000  0.00  0.00    +0.059 C 
ATOM      3  C   UNL     1       6.649  -0.375   0.000  0.00  0.00    +0.027 C 
ENDROOT
BRANCH   2   1
ATOM      1  C   UNL     1       4.399   0.924   0.000  0.00  0.00    -0.008 A 
ATOM     15  C   UNL     1       3.650  -0.375   0.000  0.00  0.00    +0.009 A 
ATOM     16  C   UNL     1       2.150  -0.375   0.000  0.00  0.00    +0.001 A 
ATOM     17  C   UNL     1       1.400   0.924   0.000  0.00  0.00    +0.000 A 
ATOM     18  C   UNL     1       2.150   2.223   0.000  0.00  0.00    +0.001 A 
ATOM     19  C   UNL     1       3.650   2.223   0.000  0.00  0.00    +0.009 A 
ENDBRANCH   2   1
BRANCH   3   4
ATOM      4  C   UNL     1       8.149  -0.375   0.000  0.00  0.00    -0.022 A 
ATOM      5  C   UNL     1       8.899  -1.674   0.000  0.00  0.00    +0.031 A 
ATOM      6  C   UNL     1      10.400  -1.674   0.000  0.00  0.00    +0.030 A 
ATOM     10  C   UNL     1      11.150  -0.375   0.000  0.00  0.00    +0.023 A 
ATOM     11  C   UNL     1      10.400   0.924   0.000  0.00  0.00    +0.002 A 
ATOM     12  C   UNL     1       8.899   0.924   0.000  0.00  0.00    +0.008 A 
BRANCH   6   7
ATOM      7  N   UNL     1      11.150  -2.973   0.000  0.00  0.00    -0.336 N 
ATOM      8  C   UNL     1      12.650  -2.973   0.000  0.00  0.00    +0.129 C 
ATOM      9  C   UNL     1      10.400  -4.272   0.000  0.00  0.00    +0.129 C 
ENDBRANCH   6   7
ENDBRANCH   3   4
BRANCH   2  13
ATOM     13  C   UNL     1       6.649   2.223   0.000  0.00  0.00    +0.100 C 
ATOM     14  N   UNL     1       7.399   3.522   0.000  0.00  0.00    -0.191 NA
ENDBRANCH   2  13
TORSDOF 4