REMARK  Name = 658139
REMARK  4 active torsions:
REMARK  status: ('A' for Active; 'I' for Inactive)
REMARK    1  A    between atoms: C_1  and  N_22
REMARK    2  A    between atoms: C_11  and  N_16
REMARK    3  A    between atoms: C_13  and  N_19
REMARK    4  A    between atoms: N_14  and  N_15
REMARK                            x       y       z     vdW  Elec       q    Type
REMARK                         _______ _______ _______ _____ _____    ______ ____
ROOT
ATOM      1  C   UNL     1      -7.539 -11.701   0.000  0.00  0.00    +0.274 A 
ATOM      5  C   UNL     1      -7.539 -13.201   0.000  0.00  0.00    +0.085 A 
ATOM      6  C   UNL     1      -6.240 -13.951   0.000  0.00  0.00    +0.016 A 
ATOM      7  C   UNL     1      -4.941 -13.201   0.000  0.00  0.00    -0.001 A 
ATOM      8  C   UNL     1      -3.514 -13.665   0.000  0.00  0.00    +0.069 A 
ATOM      9  C   UNL     1      -2.904 -15.035   0.000  0.00  0.00    +0.288 A 
ATOM     13  C   UNL     1      -1.412 -15.192   0.000  0.00  0.00    +0.169 A 
ATOM     14  C   UNL     1      -0.530 -13.979   0.000  0.00  0.00    +0.280 A 
ATOM     18  C   UNL     1      -1.141 -12.608   0.000  0.00  0.00    +0.095 A 
ATOM     19  C   UNL     1      -2.632 -12.451   0.000  0.00  0.00    +0.023 A 
ATOM     20  C   UNL     1      -3.514 -11.238   0.000  0.00  0.00    +0.102 C 
ATOM     21  N   UNL     1      -3.051  -9.811   0.000  0.00  0.00    -0.148 NA
ATOM     37  C   UNL     1      -4.941 -11.701   0.000  0.00  0.00    +0.017 A 
ATOM     38  C   UNL     1      -6.240 -10.951   0.000  0.00  0.00    +0.095 A 
ENDROOT
BRANCH  21  22
ATOM     22  N   UNL     1      -1.583  -9.499   0.000  0.00  0.00    -0.148 NA
ATOM     23  C   UNL     1      -1.120  -8.073   0.000  0.00  0.00    +0.101 C 
ATOM     24  C   UNL     1       0.347  -7.761   0.000  0.00  0.00    +0.006 A 
ATOM     25  C   UNL     1       1.351  -8.876   0.000  0.00  0.00    +0.010 A 
ATOM     26  C   UNL     1       2.818  -8.564   0.000  0.00  0.00    +0.001 A 
ATOM     27  C   UNL     1       3.282  -7.137   0.000  0.00  0.00    +0.000 A 
ATOM     28  C   UNL     1       2.278  -6.023   0.000  0.00  0.00    +0.004 A 
ATOM     29  C   UNL     1       0.811  -6.334   0.000  0.00  0.00    -0.034 A 
ATOM     30  C   UNL     1      -0.193  -5.220   0.000  0.00  0.00    +0.071 C 
ATOM     31  C   UNL     1      -1.660  -5.532   0.000  0.00  0.00    -0.034 A 
ATOM     32  C   UNL     1      -2.664  -4.417   0.000  0.00  0.00    +0.004 A 
ATOM     33  C   UNL     1      -4.131  -4.729   0.000  0.00  0.00    +0.000 A 
ATOM     34  C   UNL     1      -4.594  -6.155   0.000  0.00  0.00    +0.001 A 
ATOM     35  C   UNL     1      -3.591  -7.270   0.000  0.00  0.00    +0.010 A 
ATOM     36  C   UNL     1      -2.123  -6.958   0.000  0.00  0.00    +0.006 A 
ENDBRANCH  21  22
BRANCH   1   2
ATOM      2  N   UNL     1      -8.838 -10.951   0.000  0.00  0.00    +0.080 N 
ATOM      3  O   UNL     1     -10.137 -11.701   0.000  0.00  0.00    +0.041 OA
ATOM      4  O   UNL     1      -8.838  -9.451   0.000  0.00  0.00    -0.576 OA
ENDBRANCH   1   2
BRANCH   9  10
ATOM     10  N   UNL     1      -3.785 -16.249   0.000  0.00  0.00    +0.080 N 
ATOM     11  O   UNL     1      -3.175 -17.619   0.000  0.00  0.00    +0.041 OA
ATOM     12  O   UNL     1      -5.277 -16.092   0.000  0.00  0.00    -0.576 OA
ENDBRANCH   9  10
BRANCH  14  15
ATOM     15  N   UNL     1       0.961 -14.135   0.000  0.00  0.00    +0.080 N 
ATOM     16  O   UNL     1       1.571 -15.506   0.000  0.00  0.00    +0.041 OA
ATOM     17  O   UNL     1       1.843 -12.922   0.000  0.00  0.00    -0.576 OA
ENDBRANCH  14  15
TORSDOF 4