REMARK  Name = 664327
REMARK  7 active torsions:
REMARK  status: ('A' for Active; 'I' for Inactive)
REMARK    1  A    between atoms: O_1  and  C_2
REMARK    2  A    between atoms: C_2  and  C_3
REMARK    3  A    between atoms: C_2  and  C_4
REMARK    4  A    between atoms: C_2  and  C_5
REMARK    5  A    between atoms: C_5  and  C_12
REMARK    6  A    between atoms: C_5  and  N_15
REMARK    7  A    between atoms: C_12  and  C_14
REMARK                            x       y       z     vdW  Elec       q    Type
REMARK                         _______ _______ _______ _____ _____    ______ ____
ROOT
ATOM      3  C   UNL     1      -6.221   3.275   0.000  0.00  0.00    +0.278 C 
ENDROOT
BRANCH   3  14
ATOM     14  C   UNL     1      -7.520   4.024   0.000  0.00  0.00    +0.429 C 
ATOM     15  F   UNL     1      -8.819   3.275   0.000  0.00  0.00    -0.167 F 
ATOM     16  F   UNL     1      -7.520   5.524   0.000  0.00  0.00    -0.167 F 
ATOM     17  F   UNL     1      -8.819   4.774   0.000  0.00  0.00    -0.167 F 
ENDBRANCH   3  14
BRANCH   3  18
ATOM     18  C   UNL     1      -5.471   4.574   0.000  0.00  0.00    +0.429 C 
ATOM     19  F   UNL     1      -6.221   5.873   0.000  0.00  0.00    -0.167 F 
ATOM     20  F   UNL     1      -3.971   4.574   0.000  0.00  0.00    -0.167 F 
ATOM     21  F   UNL     1      -4.721   5.873   0.000  0.00  0.00    -0.167 F 
ENDBRANCH   3  18
BRANCH   3   1
ATOM      1  O   UNL     1      -6.971   1.976   0.000  0.00  0.00    -0.372 OA
ATOM      2  H   UNL     1      -7.941   1.976   0.000  0.00  0.00    +0.211 HD
ENDBRANCH   3   1
BRANCH   3   4
ATOM      4  C   UNL     1      -4.922   2.525   0.000  0.00  0.00    +0.173 C 
BRANCH   4   5
ATOM      5  N   UNL     1      -4.922   1.025   0.000  0.00  0.00    -0.290 NA
ATOM      6  C   UNL     1      -3.623   0.275   0.000  0.00  0.00    +0.085 C 
ATOM      7  C   UNL     1      -3.623  -1.226   0.000  0.00  0.00    +0.015 C 
ATOM      8  C   UNL     1      -4.922  -1.976   0.000  0.00  0.00    +0.002 C 
ATOM      9  C   UNL     1      -6.221  -1.226   0.000  0.00  0.00    +0.015 C 
ATOM     10  C   UNL     1      -6.221   0.275   0.000  0.00  0.00    +0.085 C 
ENDBRANCH   4   5
BRANCH   4  11
ATOM     11  C   UNL     1      -3.444   2.785   0.000  0.00  0.00    +0.151 C 
ATOM     12  C   UNL     1      -2.480   1.636   0.000  0.00  0.00    +0.088 C 
ATOM     13  O   UNL     1      -2.931   4.194   0.000  0.00  0.00    -0.296 OA
ENDBRANCH   4  11
ENDBRANCH   3   4
TORSDOF 6