REMARK  Name = 668260
REMARK  4 active torsions:
REMARK  status: ('A' for Active; 'I' for Inactive)
REMARK    1  A    between atoms: C_5  and  C_6
REMARK    2  A    between atoms: C_5  and  C_14
REMARK    3  A    between atoms: C_6  and  N_7
REMARK    4  A    between atoms: C_17  and  C_22
REMARK                            x       y       z     vdW  Elec       q    Type
REMARK                         _______ _______ _______ _____ _____    ______ ____
ROOT
ATOM      1  O   UNL     1       6.536  -3.040   0.000  0.00  0.00    -0.448 OA
ATOM      2  C   UNL     1       7.651  -4.044   0.000  0.00  0.00    +0.161 C 
ATOM     26  C   UNL     1       7.040  -5.414   0.000  0.00  0.00    +0.096 C 
ATOM     27  C   UNL     1       5.549  -5.257   0.000  0.00  0.00    +0.034 C 
ATOM     28  C   UNL     1       4.545  -6.372   0.000  0.00  0.00    +0.019 C 
ATOM     29  C   UNL     1       5.237  -3.790   0.000  0.00  0.00    +0.336 C 
ATOM     30  O   UNL     1       3.866  -3.180   0.000  0.00  0.00    -0.245 OA
ENDROOT
BRANCH   2   3
ATOM      3  C   UNL     1       8.950  -4.794   0.000  0.00  0.00    -0.002 A 
ATOM      4  C   UNL     1       8.950  -6.294   0.000  0.00  0.00    +0.008 A 
ATOM      5  C   UNL     1      10.249  -7.044   0.000  0.00  0.00    +0.009 A 
ATOM      6  C   UNL     1      11.548  -6.294   0.000  0.00  0.00    -0.018 A 
ATOM     13  C   UNL     1      11.548  -4.794   0.000  0.00  0.00    +0.009 A 
ATOM     14  C   UNL     1      10.249  -4.044   0.000  0.00  0.00    +0.008 A 
BRANCH   6   7
ATOM      7  C   UNL     1      12.847  -7.044   0.000  0.00  0.00    -0.018 A 
ATOM      8  C   UNL     1      12.847  -8.544   0.000  0.00  0.00    +0.008 A 
ATOM      9  C   UNL     1      14.146  -9.294   0.000  0.00  0.00    +0.001 A 
ATOM     10  C   UNL     1      15.445  -8.544   0.000  0.00  0.00    +0.000 A 
ATOM     11  C   UNL     1      15.445  -7.044   0.000  0.00  0.00    +0.001 A 
ATOM     12  C   UNL     1      14.146  -6.294   0.000  0.00  0.00    +0.008 A 
ENDBRANCH   6   7
ENDBRANCH   2   3
BRANCH   2  15
ATOM     15  C   UNL     1       8.532  -2.830   0.000  0.00  0.00    +0.179 C 
BRANCH  15  16
ATOM     16  N   UNL     1       7.922  -1.460   0.000  0.00  0.00    -0.295 N 
ATOM     17  C   UNL     1       8.804  -0.246   0.000  0.00  0.00    +0.111 A 
ATOM     18  C   UNL     1       8.194   1.124   0.000  0.00  0.00    +0.098 A 
ATOM     19 BR   UNL     1       9.075   2.337   0.000  0.00  0.00    -0.043 Br
ATOM     20  C   UNL     1       6.702   1.281   0.000  0.00  0.00    +0.268 A 
ATOM     21  N   UNL     1       5.820   0.067   0.000  0.00  0.00    -0.274 N 
ATOM     22  H   UNL     1       4.841   0.170   0.000  0.00  0.00    +0.173 HD
ATOM     23  O   UNL     1       6.092   2.651   0.000  0.00  0.00    -0.267 OA
ATOM     24  C   UNL     1       6.430  -1.303   0.000  0.00  0.00    +0.329 A 
ATOM     25  O   UNL     1       5.549  -2.517   0.000  0.00  0.00    -0.246 OA
ENDBRANCH  15  16
ENDBRANCH   2  15
TORSDOF 4