REMARK  Name = 659501
REMARK  2 active torsions:
REMARK  status: ('A' for Active; 'I' for Inactive)
REMARK    1  A    between atoms: N_13  and  C_17
REMARK    2  A    between atoms: N_16  and  C_18
REMARK                            x       y       z     vdW  Elec       q    Type
REMARK                         _______ _______ _______ _____ _____    ______ ____
ROOT
ATOM      1  C   UNL     1     -10.504  -3.000   0.000  0.00  0.00    +0.001 A 
ATOM      2  C   UNL     1     -10.504  -4.500   0.000  0.00  0.00    +0.001 A 
ATOM      3  C   UNL     1      -9.205  -5.250   0.000  0.00  0.00    +0.012 A 
ATOM      4  C   UNL     1      -7.906  -4.500   0.000  0.00  0.00    +0.034 A 
ATOM      5  C   UNL     1      -6.607  -5.250   0.000  0.00  0.00    +0.203 C 
ATOM      6  O   UNL     1      -6.607  -6.750   0.000  0.00  0.00    -0.286 OA
ATOM      7  C   UNL     1      -5.308  -4.500   0.000  0.00  0.00    +0.090 A 
ATOM      8  S   UNL     1      -3.882  -4.963   0.000  0.00  0.00    -0.046 S 
ATOM      9  C   UNL     1      -3.000  -3.750   0.000  0.00  0.00    +0.169 A 
ATOM     10  N   UNL     1      -1.500  -3.750   0.000  0.00  0.00    -0.264 NA
ATOM     11  C   UNL     1      -0.750  -5.049   0.000  0.00  0.00    +0.173 C 
ATOM     12  N   UNL     1      -3.882  -2.537   0.000  0.00  0.00    -0.319 N 
ATOM     13  C   UNL     1      -3.418  -1.110   0.000  0.00  0.00    +0.151 C 
ATOM     14  C   UNL     1      -5.308  -3.000   0.000  0.00  0.00    +0.109 A 
ATOM     15  C   UNL     1      -6.607  -2.250   0.000  0.00  0.00    +0.211 C 
ATOM     16  O   UNL     1      -6.607  -0.750   0.000  0.00  0.00    -0.285 OA
ATOM     17  C   UNL     1      -7.906  -3.000   0.000  0.00  0.00    +0.035 A 
ATOM     18  C   UNL     1      -9.205  -2.250   0.000  0.00  0.00    +0.012 A 
ENDROOT
TORSDOF 0