REMARK  Name = 664286
REMARK  3 active torsions:
REMARK  status: ('A' for Active; 'I' for Inactive)
REMARK    1  A    between atoms: N_6  and  N_7
REMARK    2  A    between atoms: N_7  and  C_8
REMARK    3  A    between atoms: N_7  and  C_9
REMARK                            x       y       z     vdW  Elec       q    Type
REMARK                         _______ _______ _______ _____ _____    ______ ____
ROOT
ATOM      8  C   UNL     1       7.021   3.000   0.000  0.00  0.00    +0.048 A 
ATOM      9  C   UNL     1       7.021   1.500   0.000  0.00  0.00    +0.025 A 
ATOM     10  C   UNL     1       8.320   0.750   0.000  0.00  0.00    +0.010 A 
ATOM     11  C   UNL     1       9.619   1.500   0.000  0.00  0.00    -0.018 A 
ATOM     12  C   UNL     1      10.918   0.750   0.000  0.00  0.00    +0.008 A 
ATOM     13  C   UNL     1      12.217   1.500   0.000  0.00  0.00    +0.001 A 
ATOM     14  C   UNL     1      12.217   3.000   0.000  0.00  0.00    +0.001 A 
ATOM     15  C   UNL     1      10.918   3.750   0.000  0.00  0.00    +0.008 A 
ATOM     16  C   UNL     1       9.619   3.000   0.000  0.00  0.00    -0.016 A 
ATOM     17  C   UNL     1       8.320   3.750   0.000  0.00  0.00    +0.033 A 
ENDROOT
BRANCH   8   7
ATOM      7  N   UNL     1       5.722   3.750   0.000  0.00  0.00    -0.253 N 
ATOM     18  C   UNL     1       5.722   5.250   0.000  0.00  0.00    +0.154 C 
BRANCH   7   5
ATOM      1  C   UNL     1       1.500   5.554   0.000  0.00  0.00    +0.188 C 
ATOM      2  C   UNL     1       0.750   4.255   0.000  0.00  0.00    +0.255 C 
ATOM      3  O   UNL     1       1.754   3.140   0.000  0.00  0.00    -0.463 OA
ATOM      4  C   UNL     1       3.124   3.750   0.000  0.00  0.00    +0.295 C 
ATOM      5  N   UNL     1       4.423   3.000   0.000  0.00  0.00    -0.218 N 
ATOM      6  H   UNL     1       4.423   2.016   0.000  0.00  0.00    +0.175 HD
ATOM     19  N   UNL     1       2.967   5.242   0.000  0.00  0.00    -0.232 NA
ENDBRANCH   7   5
ENDBRANCH   8   7
TORSDOF 2