REMARK  Name = 673912
REMARK  1 active torsions:
REMARK  status: ('A' for Active; 'I' for Inactive)
REMARK    1  A    between atoms: N_10  and  N_11
REMARK                            x       y       z     vdW  Elec       q    Type
REMARK                         _______ _______ _______ _____ _____    ______ ____
ROOT
ATOM      1  C   UNL     1      -3.843  -8.156   0.000  0.00  0.00    +0.008 C 
ATOM      2  C   UNL     1      -3.233  -9.526   0.000  0.00  0.00    -0.003 C 
ATOM      3  C   UNL     1      -1.806  -7.056   0.000  0.00  0.00    +0.005 C 
ATOM      4  C   UNL     1      -2.416  -5.685   0.000  0.00  0.00    +0.042 C 
ATOM      5  C   UNL     1      -0.924  -5.528   0.000  0.00  0.00    +0.041 C 
ATOM      6  N   UNL     1      -0.174  -4.229   0.000  0.00  0.00    -0.188 NA
ATOM     14  C   UNL     1      -0.314  -6.899   0.000  0.00  0.00    +0.057 C 
ATOM     15  C   UNL     1      -1.429  -7.902   0.000  0.00  0.00    +0.002 C 
ATOM     16  C   UNL     1      -1.741  -9.370   0.000  0.00  0.00    +0.000 C 
ATOM     17  C   UNL     1      -2.728  -7.152   0.000  0.00  0.00    +0.002 C 
ENDROOT
BRANCH   6   7
ATOM      7  N   UNL     1       1.325  -4.229   0.000  0.00  0.00    -0.191 N 
ATOM      8  H   UNL     1       1.818  -5.082   0.000  0.00  0.00    +0.179 HD
ATOM      9  C   UNL     1       2.075  -2.930   0.000  0.00  0.00    +0.317 C 
ATOM     10  N   UNL     1       3.575  -2.930   0.000  0.00  0.00    -0.312 N 
ATOM     11  H   UNL     1       4.068  -2.078   0.000  0.00  0.00    +0.147 HD
ATOM     12  H   UNL     1       4.068  -3.783   0.000  0.00  0.00    +0.147 HD
ATOM     13  O   UNL     1       1.325  -1.631   0.000  0.00  0.00    -0.251 OA
ENDBRANCH   6   7
TORSDOF 1