REMARK  Name = 670226
REMARK  16 active torsions:
REMARK  status: ('A' for Active; 'I' for Inactive)
REMARK    1  A    between atoms: C_2  and  C_13
REMARK    2  A    between atoms: C_5  and  C_17
REMARK    3  A    between atoms: C_5  and  O_18
REMARK    4  A    between atoms: C_8  and  C_17
REMARK    5  A    between atoms: C_13  and  C_14
REMARK    6  A    between atoms: C_13  and  C_15
REMARK    7  A    between atoms: C_13  and  C_16
REMARK    8  A    between atoms: O_18  and  C_19
REMARK    9  A    between atoms: C_19  and  C_20
REMARK   10  A    between atoms: C_20  and  N_21
REMARK   11  A    between atoms: N_21  and  C_22
REMARK   12  A    between atoms: N_21  and  C_23
REMARK   13  A    between atoms: O_25  and  C_26
REMARK   14  A    between atoms: C_26  and  C_28
REMARK   15  A    between atoms: C_29  and  C_30
REMARK   16  A    between atoms: C_30  and  O_32
REMARK                            x       y       z     vdW  Elec       q    Type
REMARK                         _______ _______ _______ _____ _____    ______ ____
ROOT
ATOM      4  C   UNL     1      13.795   3.040   0.000  0.00  0.00    +0.098 C 
ATOM      5  C   UNL     1      14.308   1.631   0.000  0.00  0.00    +0.098 C 
ENDROOT
BRANCH   4   3
ATOM      3  C   UNL     1      12.318   3.301   0.000  0.00  0.00    +0.330 C 
ATOM     10  O   UNL     1      11.353   2.152   0.000  0.00  0.00    -0.246 OA
BRANCH   3   1
ATOM      1  O   UNL     1      11.805   4.710   0.000  0.00  0.00    -0.478 OA
ATOM      2  H   UNL     1      12.407   5.428   0.000  0.00  0.00    +0.295 HD
ENDBRANCH   3   1
ENDBRANCH   4   3
BRANCH   5   6
ATOM      6  C   UNL     1      15.785   1.370   0.000  0.00  0.00    +0.330 C 
ATOM      9  O   UNL     1      16.749   2.519   0.000  0.00  0.00    -0.246 OA
BRANCH   6   7
ATOM      7  O   UNL     1      16.298  -0.039   0.000  0.00  0.00    -0.478 OA
ATOM      8  H   UNL     1      15.696  -0.757   0.000  0.00  0.00    +0.295 HD
ENDBRANCH   6   7
ENDBRANCH   5   6
TORSDOF 4