REMARK  Name = 675593
REMARK  22 active torsions:
REMARK  status: ('A' for Active; 'I' for Inactive)
REMARK    1  A    between atoms: C_2  and  C_28
REMARK    2  A    between atoms: C_5  and  N_8
REMARK    3  A    between atoms: C_6  and  S_7
REMARK    4  A    between atoms: S_7  and  C_29
REMARK    5  A    between atoms: C_17  and  C_27
REMARK    6  A    between atoms: C_20  and  N_24
REMARK    7  A    between atoms: C_21  and  S_22
REMARK    8  A    between atoms: S_22  and  C_31
REMARK    9  A    between atoms: C_29  and  N_33
REMARK   10  A    between atoms: C_31  and  N_40
REMARK   11  A    between atoms: N_33  and  C_34
REMARK   12  A    between atoms: N_33  and  C_37
REMARK   13  A    between atoms: C_34  and  C_35
REMARK   14  A    between atoms: C_35  and  C_36
REMARK   15  A    between atoms: C_37  and  C_38
REMARK   16  A    between atoms: C_38  and  C_39
REMARK   17  A    between atoms: N_40  and  C_41
REMARK   18  A    between atoms: N_40  and  C_44
REMARK   19  A    between atoms: C_41  and  C_42
REMARK   20  A    between atoms: C_42  and  C_43
REMARK   21  A    between atoms: C_44  and  C_45
REMARK   22  A    between atoms: C_45  and  C_46
REMARK                            x       y       z     vdW  Elec       q    Type
REMARK                         _______ _______ _______ _____ _____    ______ ____
ROOT
ATOM      1  N   UNL     1     -18.561   5.351   0.000  0.00  0.00    -0.219 NA
ATOM      2  C   UNL     1     -17.262   6.101   0.000  0.00  0.00    +0.186 A 
ATOM     13  C   UNL     1     -15.964   5.351   0.000  0.00  0.00    +0.344 A 
ATOM     17  C   UNL     1     -15.964   3.850   0.000  0.00  0.00    +0.204 A 
ATOM     18  N   UNL     1     -14.664   3.100   0.000  0.00  0.00    -0.307 N 
ATOM     19  C   UNL     1     -14.664   1.601   0.000  0.00  0.00    +0.125 C 
ATOM     20  C   UNL     1     -13.365   0.851   0.000  0.00  0.00    +0.125 C 
ATOM     21  N   UNL     1     -12.066   1.601   0.000  0.00  0.00    -0.307 N 
ATOM     22  C   UNL     1     -10.767   0.851   0.000  0.00  0.00    +0.204 A 
ATOM     23  C   UNL     1      -9.468   1.601   0.000  0.00  0.00    +0.344 A 
ATOM     27  C   UNL     1      -8.169   0.851   0.000  0.00  0.00    +0.186 A 
ATOM     38  N   UNL     1      -8.169  -0.650   0.000  0.00  0.00    -0.219 NA
ATOM     39  C   UNL     1      -9.468  -1.400   0.000  0.00  0.00    +0.130 A 
ATOM     40  C   UNL     1      -9.468  -2.900   0.000  0.00  0.00    +0.088 C 
ATOM     41  N   UNL     1     -10.767  -0.649   0.000  0.00  0.00    -0.211 NA
ATOM     42  C   UNL     1     -12.066   3.100   0.000  0.00  0.00    +0.125 C 
ATOM     43  C   UNL     1     -13.365   3.850   0.000  0.00  0.00    +0.125 C 
ATOM     44  N   UNL     1     -17.262   3.100   0.000  0.00  0.00    -0.211 NA
ATOM     45  C   UNL     1     -18.561   3.850   0.000  0.00  0.00    +0.130 A 
ATOM     46  C   UNL     1     -19.861   3.100   0.000  0.00  0.00    +0.088 C 
ENDROOT
BRANCH  13  14
ATOM     14  N   UNL     1     -14.664   6.101   0.000  0.00  0.00    +0.086 N 
ATOM     15  O   UNL     1     -14.664   7.601   0.000  0.00  0.00    +0.042 OA
ATOM     16  O   UNL     1     -13.365   5.351   0.000  0.00  0.00    -0.576 OA
ENDBRANCH  13  14
BRANCH  23  24
ATOM     24  N   UNL     1      -9.468   3.100   0.000  0.00  0.00    +0.086 N 
ATOM     25  O   UNL     1      -8.169   3.850   0.000  0.00  0.00    +0.042 OA
ATOM     26  O   UNL     1     -10.767   3.850   0.000  0.00  0.00    -0.576 OA
ENDBRANCH  23  24
BRANCH   2   3
ATOM      3  S   UNL     1     -17.262   7.601   0.000  0.00  0.00    -0.040 S 
BRANCH   3   4
ATOM      4  C   UNL     1     -18.561   8.351   0.000  0.00  0.00    +0.115 C 
ATOM     12  S   UNL     1     -18.561   9.851   0.000  0.00  0.00    -0.028 S 
BRANCH   4   5
ATOM      5  N   UNL     1     -19.861   7.601   0.000  0.00  0.00    -0.319 N 
BRANCH   5   6
ATOM      6  C   UNL     1     -19.861   6.101   0.000  0.00  0.00    +0.106 C 
BRANCH   6   7
ATOM      7  C   UNL     1     -21.160   5.351   0.000  0.00  0.00    +0.015 C 
ATOM      8  C   UNL     1     -22.459   6.101   0.000  0.00  0.00    +0.005 C 
ENDBRANCH   6   7
ENDBRANCH   5   6
BRANCH   5   9
ATOM      9  C   UNL     1     -21.160   8.351   0.000  0.00  0.00    +0.106 C 
BRANCH   9  10
ATOM     10  C   UNL     1     -22.459   7.601   0.000  0.00  0.00    +0.015 C 
ATOM     11  C   UNL     1     -23.758   8.350   0.000  0.00  0.00    +0.005 C 
ENDBRANCH   9  10
ENDBRANCH   5   9
ENDBRANCH   4   5
ENDBRANCH   3   4
ENDBRANCH   2   3
BRANCH  27  28
ATOM     28  S   UNL     1      -6.870   1.600   0.000  0.00  0.00    -0.040 S 
BRANCH  28  29
ATOM     29  C   UNL     1      -5.571   0.850   0.000  0.00  0.00    +0.115 C 
ATOM     37  S   UNL     1      -4.272   1.601   0.000  0.00  0.00    -0.028 S 
BRANCH  29  30
ATOM     30  N   UNL     1      -5.571  -0.650   0.000  0.00  0.00    -0.319 N 
BRANCH  30  31
ATOM     31  C   UNL     1      -6.870  -1.400   0.000  0.00  0.00    +0.106 C 
BRANCH  31  32
ATOM     32  C   UNL     1      -6.870  -2.900   0.000  0.00  0.00    +0.015 C 
ATOM     33  C   UNL     1      -5.571  -3.650   0.000  0.00  0.00    +0.005 C 
ENDBRANCH  31  32
ENDBRANCH  30  31
BRANCH  30  34
ATOM     34  C   UNL     1      -4.272  -1.400   0.000  0.00  0.00    +0.106 C 
BRANCH  34  35
ATOM     35  C   UNL     1      -4.272  -2.900   0.000  0.00  0.00    +0.015 C 
ATOM     36  C   UNL     1      -2.973  -3.650   0.000  0.00  0.00    +0.005 C 
ENDBRANCH  34  35
ENDBRANCH  30  34
ENDBRANCH  29  30
ENDBRANCH  28  29
ENDBRANCH  27  28
TORSDOF 16