REMARK  Name = 671424
REMARK  3 active torsions:
REMARK  status: ('A' for Active; 'I' for Inactive)
REMARK    1  A    between atoms: C_6  and  N_25
REMARK    2  A    between atoms: N_11  and  C_12
REMARK    3  A    between atoms: N_18  and  C_19
REMARK                            x       y       z     vdW  Elec       q    Type
REMARK                         _______ _______ _______ _____ _____    ______ ____
ROOT
ATOM      1  C   UNL     1       4.647   2.250   0.000  0.00  0.00    +0.113 A 
ATOM      2  C   UNL     1       3.348   3.000   0.000  0.00  0.00    +0.275 A 
ATOM      6  C   UNL     1       3.348   4.500   0.000  0.00  0.00    +0.088 A 
ATOM      7  C   UNL     1       4.647   5.250   0.000  0.00  0.00    +0.055 A 
ATOM      8  C   UNL     1       5.946   4.500   0.000  0.00  0.00    +0.154 A 
ATOM      9  O   UNL     1       7.245   5.250   0.000  0.00  0.00    -0.433 OA
ATOM     10  C   UNL     1       8.544   4.500   0.000  0.00  0.00    +0.265 A 
ATOM     11  N   UNL     1       9.843   5.250   0.000  0.00  0.00    -0.210 NA
ATOM     18  C   UNL     1       8.544   3.000   0.000  0.00  0.00    +0.195 A 
ATOM     19  N   UNL     1       9.843   2.250   0.000  0.00  0.00    -0.225 NA
ATOM     26  N   UNL     1       7.245   2.250   0.000  0.00  0.00    -0.333 N 
ATOM     27  H   UNL     1       7.245   1.266   0.000  0.00  0.00    +0.168 HD
ATOM     28  C   UNL     1       5.946   3.000   0.000  0.00  0.00    +0.090 A 
ENDROOT
BRANCH  11  12
ATOM     12  C   UNL     1      11.320   5.511   0.000  0.00  0.00    +0.068 A 
ATOM     13  C   UNL     1      12.285   4.361   0.000  0.00  0.00    +0.028 A 
ATOM     14  C   UNL     1      13.762   4.622   0.000  0.00  0.00    +0.002 A 
ATOM     15  C   UNL     1      14.275   6.032   0.000  0.00  0.00    +0.000 A 
ATOM     16  C   UNL     1      13.311   7.181   0.000  0.00  0.00    +0.002 A 
ATOM     17  C   UNL     1      11.834   6.920   0.000  0.00  0.00    +0.028 A 
ENDBRANCH  11  12
BRANCH  19  20
ATOM     20  C   UNL     1      11.320   1.990   0.000  0.00  0.00    +0.066 A 
ATOM     21  C   UNL     1      11.834   0.580   0.000  0.00  0.00    +0.028 A 
ATOM     22  C   UNL     1      13.311   0.320   0.000  0.00  0.00    +0.002 A 
ATOM     23  C   UNL     1      14.275   1.469   0.000  0.00  0.00    +0.000 A 
ATOM     24  C   UNL     1      13.762   2.878   0.000  0.00  0.00    +0.002 A 
ATOM     25  C   UNL     1      12.285   3.139   0.000  0.00  0.00    +0.028 A 
ENDBRANCH  19  20
BRANCH   2   3
ATOM      3  N   UNL     1       2.049   2.250   0.000  0.00  0.00    +0.080 N 
ATOM      4  O   UNL     1       0.750   3.000   0.000  0.00  0.00    +0.041 OA
ATOM      5  O   UNL     1       2.049   0.750   0.000  0.00  0.00    -0.576 OA
ENDBRANCH   2   3
TORSDOF 3