REMARK  Name = 664298
REMARK  4 active torsions:
REMARK  status: ('A' for Active; 'I' for Inactive)
REMARK    1  A    between atoms: N_6  and  C_7
REMARK    2  A    between atoms: C_7  and  C_8
REMARK    3  A    between atoms: C_7  and  C_15
REMARK    4  A    between atoms: C_8  and  C_11
REMARK                            x       y       z     vdW  Elec       q    Type
REMARK                         _______ _______ _______ _____ _____    ______ ____
ROOT
ATOM      7  C   UNL     1       5.722   3.000   0.000  0.00  0.00    +0.076 C 
ATOM      8  C   UNL     1       5.722   1.500   0.000  0.00  0.00    +0.028 C 
ENDROOT
BRANCH   7   5
ATOM      1  C   UNL     1       0.750   2.495   0.000  0.00  0.00    +0.255 C 
ATOM      2  C   UNL     1       1.500   1.196   0.000  0.00  0.00    +0.187 C 
ATOM      3  N   UNL     1       2.967   1.508   0.000  0.00  0.00    -0.233 NA
ATOM      4  C   UNL     1       3.124   3.000   0.000  0.00  0.00    +0.278 C 
ATOM      5  N   UNL     1       4.423   3.750   0.000  0.00  0.00    -0.297 N 
ATOM      6  H   UNL     1       4.423   4.734   0.000  0.00  0.00    +0.151 HD
ATOM     16  O   UNL     1       1.754   3.610   0.000  0.00  0.00    -0.464 OA
ENDBRANCH   7   5
BRANCH   7   9
ATOM      9  C   UNL     1       7.021   3.750   0.000  0.00  0.00    +0.057 C 
BRANCH   9  10
ATOM     10  C   UNL     1       8.320   3.000   0.000  0.00  0.00    -0.046 A 
ATOM     11  C   UNL     1       8.320   1.500   0.000  0.00  0.00    +0.004 A 
ATOM     12  C   UNL     1       9.619   0.750   0.000  0.00  0.00    +0.000 A 
ATOM     13  C   UNL     1      10.918   1.500   0.000  0.00  0.00    +0.000 A 
ATOM     14  C   UNL     1      10.918   3.000   0.000  0.00  0.00    +0.000 A 
ATOM     15  C   UNL     1       9.619   3.750   0.000  0.00  0.00    +0.004 A 
ENDBRANCH   9  10
ENDBRANCH   7   9
TORSDOF 3