REMARK  Name = 671136
REMARK  7 active torsions:
REMARK  status: ('A' for Active; 'I' for Inactive)
REMARK    1  A    between atoms: C_4  and  N_13
REMARK    2  A    between atoms: C_8  and  N_17
REMARK    3  A    between atoms: C_21  and  C_33
REMARK    4  A    between atoms: C_23  and  O_24
REMARK    5  A    between atoms: O_24  and  C_25
REMARK    6  A    between atoms: C_25  and  C_32
REMARK    7  A    between atoms: C_33  and  C_35
REMARK                            x       y       z     vdW  Elec       q    Type
REMARK                         _______ _______ _______ _____ _____    ______ ____
ROOT
ATOM      5  N   UNL     1      -0.935 -12.120   0.000  0.00  0.00    -0.256 N 
ATOM      6  C   UNL     1      -0.935 -13.620   0.000  0.00  0.00    +0.173 A 
ATOM      7  S   UNL     1      -2.234 -14.370   0.000  0.00  0.00    -0.012 S 
ATOM      8  N   UNL     1       0.364 -14.370   0.000  0.00  0.00    -0.283 N 
ATOM      9  C   UNL     1       1.663 -13.620   0.000  0.00  0.00    +0.103 A 
ATOM     10  S   UNL     1       3.090 -14.083   0.000  0.00  0.00    -0.063 S 
ATOM     11  C   UNL     1       3.971 -12.870   0.000  0.00  0.00    +0.099 A 
ATOM     15  C   UNL     1       3.090 -11.656   0.000  0.00  0.00    +0.164 A 
ATOM     27  C   UNL     1       1.663 -12.120   0.000  0.00  0.00    +0.114 A 
ATOM     34  C   UNL     1       0.364 -11.370   0.000  0.00  0.00    +0.271 A 
ATOM     35  O   UNL     1       0.364  -9.870   0.000  0.00  0.00    -0.266 OA
ENDROOT
BRANCH   5   4
ATOM      1  C   UNL     1      -4.832  -9.870   0.000  0.00  0.00    +0.000 A 
ATOM      2  C   UNL     1      -4.832 -11.370   0.000  0.00  0.00    +0.002 A 
ATOM      3  C   UNL     1      -3.533 -12.120   0.000  0.00  0.00    +0.026 A 
ATOM      4  C   UNL     1      -2.234 -11.370   0.000  0.00  0.00    +0.052 A 
ATOM     36  C   UNL     1      -2.234  -9.870   0.000  0.00  0.00    +0.026 A 
ATOM     37  C   UNL     1      -3.533  -9.120   0.000  0.00  0.00    +0.002 A 
ENDBRANCH   5   4
BRANCH   8  28
ATOM     28  C   UNL     1       0.364 -15.870   0.000  0.00  0.00    +0.049 A 
ATOM     29  C   UNL     1       1.663 -16.620   0.000  0.00  0.00    +0.026 A 
ATOM     30  C   UNL     1       1.663 -18.120   0.000  0.00  0.00    +0.002 A 
ATOM     31  C   UNL     1       0.364 -18.870   0.000  0.00  0.00    +0.000 A 
ATOM     32  C   UNL     1      -0.935 -18.120   0.000  0.00  0.00    +0.002 A 
ATOM     33  C   UNL     1      -0.935 -16.620   0.000  0.00  0.00    +0.026 A 
ENDBRANCH   8  28
BRANCH  11  12
ATOM     12  C   UNL     1       5.471 -12.870   0.000  0.00  0.00    +0.170 C 
ATOM     13  C   UNL     1       6.221 -11.570   0.000  0.00  0.00    +0.092 C 
ATOM     14  O   UNL     1       6.221 -14.169   0.000  0.00  0.00    -0.292 OA
ENDBRANCH  11  12
BRANCH  15  16
ATOM     16  O   UNL     1       3.553 -10.230   0.000  0.00  0.00    -0.420 OA
BRANCH  16  17
ATOM     17  C   UNL     1       2.549  -9.115   0.000  0.00  0.00    +0.346 C 
ATOM     26  O   UNL     1       1.082  -9.427   0.000  0.00  0.00    -0.244 OA
BRANCH  17  18
ATOM     18  C   UNL     1       3.013  -7.688   0.000  0.00  0.00    +0.078 A 
ATOM     19  C   UNL     1       4.480  -7.376   0.000  0.00  0.00    +0.056 A 
ATOM     20 CL   UNL     1       5.484  -8.491   0.000  0.00  0.00    -0.083 Cl
ATOM     21  C   UNL     1       4.944  -5.950   0.000  0.00  0.00    +0.040 A 
ATOM     22  C   UNL     1       3.940  -4.835   0.000  0.00  0.00    +0.042 A 
ATOM     23 CL   UNL     1       4.404  -3.408   0.000  0.00  0.00    -0.083 Cl
ATOM     24  C   UNL     1       2.473  -5.147   0.000  0.00  0.00    +0.021 A 
ATOM     25  C   UNL     1       2.009  -6.573   0.000  0.00  0.00    +0.018 A 
ENDBRANCH  17  18
ENDBRANCH  16  17
ENDBRANCH  15  16
TORSDOF 6