REMARK  Name = 66914
REMARK  3 active torsions:
REMARK  status: ('A' for Active; 'I' for Inactive)
REMARK    1  A    between atoms: C_7  and  C_10
REMARK    2  A    between atoms: C_10  and  C_11
REMARK    3  A    between atoms: C_11  and  C_12
REMARK                            x       y       z     vdW  Elec       q    Type
REMARK                         _______ _______ _______ _____ _____    ______ ____
ROOT
ATOM      1 CL   UNL     1      -4.172  -3.275   0.000  0.00  0.00    -0.062 Cl
ATOM      2  C   UNL     1      -2.873  -4.024   0.000  0.00  0.00    +0.138 A 
ATOM      3  C   UNL     1      -2.873  -5.524   0.000  0.00  0.00    +0.026 A 
ATOM      7  C   UNL     1      -1.574  -6.274   0.000  0.00  0.00    +0.138 A 
ATOM      8  N   UNL     1      -0.275  -5.524   0.000  0.00  0.00    -0.205 NA
ATOM      9  C   UNL     1      -0.275  -4.024   0.000  0.00  0.00    +0.225 A 
ATOM     10 CL   UNL     1       1.025  -3.275   0.000  0.00  0.00    -0.041 Cl
ATOM     11 CL   UNL     1      -1.573  -7.774   0.000  0.00  0.00    -0.062 Cl
ATOM     12  N   UNL     1      -1.574  -3.275   0.000  0.00  0.00    -0.205 NA
ENDROOT
BRANCH   3   4
ATOM      4  C   UNL     1      -4.172  -6.274   0.000  0.00  0.00    +0.041 C 
BRANCH   4   5
ATOM      5  C   UNL     1      -5.471  -5.524   0.000  0.00  0.00    +0.001 C 
ATOM      6  C   UNL     1      -6.770  -6.274   0.000  0.00  0.00    +0.004 C 
ENDBRANCH   4   5
ENDBRANCH   3   4
TORSDOF 2