REMARK  Name = 673622
REMARK  14 active torsions:
REMARK  status: ('A' for Active; 'I' for Inactive)
REMARK    1  A    between atoms: C_1  and  O_23
REMARK    2  A    between atoms: C_2  and  O_21
REMARK    3  A    between atoms: C_3  and  O_25
REMARK    4  A    between atoms: C_5  and  C_7
REMARK    5  A    between atoms: C_7  and  C_10
REMARK    6  A    between atoms: C_7  and  N_14
REMARK    7  A    between atoms: C_15  and  C_27
REMARK    8  A    between atoms: C_19  and  O_31
REMARK    9  A    between atoms: O_21  and  C_22
REMARK   10  A    between atoms: O_23  and  C_24
REMARK   11  A    between atoms: O_25  and  C_26
REMARK   12  A    between atoms: C_27  and  O_29
REMARK   13  A    between atoms: O_29  and  C_30
REMARK   14  A    between atoms: O_31  and  C_32
REMARK                            x       y       z     vdW  Elec       q    Type
REMARK                         _______ _______ _______ _____ _____    ______ ____
ROOT
ATOM      6  C   UNL     1       3.522   8.899   0.000  0.00  0.00    +0.138 C 
ENDROOT
BRANCH   6   5
ATOM      1  C   UNL     1       0.924   5.899   0.000  0.00  0.00    +0.165 A 
ATOM      4  C   UNL     1       2.223   6.649   0.000  0.00  0.00    +0.055 A 
ATOM      5  C   UNL     1       2.223   8.149   0.000  0.00  0.00    -0.015 A 
ATOM     25  C   UNL     1       0.924   8.899   0.000  0.00  0.00    +0.055 A 
ATOM     26  C   UNL     1      -0.375   8.149   0.000  0.00  0.00    +0.165 A 
ATOM     29  C   UNL     1      -0.375   6.649   0.000  0.00  0.00    +0.204 A 
BRANCH   1   2
ATOM      2  O   UNL     1       0.924   4.399   0.000  0.00  0.00    -0.491 OA
ATOM      3  C   UNL     1       2.223   3.650   0.000  0.00  0.00    +0.277 C 
ENDBRANCH   1   2
BRANCH  26  27
ATOM     27  O   UNL     1      -1.674   8.899   0.000  0.00  0.00    -0.491 OA
ATOM     28  C   UNL     1      -2.973   8.149   0.000  0.00  0.00    +0.277 C 
ENDBRANCH  26  27
BRANCH  29  30
ATOM     30  O   UNL     1      -1.674   5.899   0.000  0.00  0.00    -0.488 OA
ATOM     31  C   UNL     1      -2.973   6.649   0.000  0.00  0.00    +0.277 C 
ENDBRANCH  29  30
ENDBRANCH   6   5
BRANCH   6   7
ATOM      7  N   UNL     1       3.522  10.400   0.000  0.00  0.00    -0.277 N 
ATOM      8  C   UNL     1       4.736  11.281   0.000  0.00  0.00    +0.186 C 
ATOM     13  C   UNL     1       4.272  12.708   0.000  0.00  0.00    +0.043 C 
ATOM     14  C   UNL     1       2.772  12.708   0.000  0.00  0.00    +0.098 C 
ATOM     15  C   UNL     1       2.309  11.281   0.000  0.00  0.00    +0.217 C 
ATOM     16  O   UNL     1       0.882  10.818   0.000  0.00  0.00    -0.276 OA
BRANCH   8   9
ATOM      9  C   UNL     1       6.106  11.891   0.000  0.00  0.00    +0.328 C 
ATOM     12  O   UNL     1       6.263  13.383   0.000  0.00  0.00    -0.249 OA
BRANCH   9  10
ATOM     10  O   UNL     1       7.319  11.010   0.000  0.00  0.00    -0.467 OA
ATOM     11  C   UNL     1       8.690  11.620   0.000  0.00  0.00    +0.280 C 
ENDBRANCH   9  10
ENDBRANCH   8   9
ENDBRANCH   6   7
BRANCH   6  17
ATOM     17  C   UNL     1       4.821   8.149   0.000  0.00  0.00    -0.022 A 
ATOM     18  C   UNL     1       6.120   8.899   0.000  0.00  0.00    +0.009 A 
ATOM     19  C   UNL     1       7.419   8.149   0.000  0.00  0.00    +0.046 A 
ATOM     20  C   UNL     1       7.419   6.649   0.000  0.00  0.00    +0.120 A 
ATOM     23  C   UNL     1       6.120   5.899   0.000  0.00  0.00    +0.046 A 
ATOM     24  C   UNL     1       4.821   6.649   0.000  0.00  0.00    +0.009 A 
BRANCH  20  21
ATOM     21  O   UNL     1       8.718   5.899   0.000  0.00  0.00    -0.495 OA
ATOM     22  C   UNL     1      10.017   6.649   0.000  0.00  0.00    +0.277 C 
ENDBRANCH  20  21
ENDBRANCH   6  17
TORSDOF 9