REMARK  Name = 659174
REMARK  10 active torsions:
REMARK  status: ('A' for Active; 'I' for Inactive)
REMARK    1  A    between atoms: C_1  and  C_5
REMARK    2  A    between atoms: C_5  and  C_6
REMARK    3  A    between atoms: C_5  and  O_10
REMARK    4  A    between atoms: C_5  and  C_11
REMARK    5  A    between atoms: C_11  and  C_12
REMARK    6  A    between atoms: C_12  and  C_14
REMARK    7  A    between atoms: C_14  and  C_15
REMARK    8  A    between atoms: C_15  and  O_16
REMARK    9  A    between atoms: C_15  and  C_17
REMARK   10  A    between atoms: C_15  and  C_21
REMARK                            x       y       z     vdW  Elec       q    Type
REMARK                         _______ _______ _______ _____ _____    ______ ____
ROOT
ATOM      9  C   UNL     1      -5.049  -4.647   0.000  0.00  0.00    +0.140 C 
ATOM     22  O   UNL     1      -5.799  -3.348   0.000  0.00  0.00    -0.297 OA
ENDROOT
BRANCH   9   8
ATOM      8  C   UNL     1      -5.799  -5.946   0.000  0.00  0.00    +0.126 C 
BRANCH   8   5
ATOM      5  C   UNL     1      -4.835  -7.095   0.000  0.00  0.00    +0.246 C 
BRANCH   5   1
ATOM      1  C   UNL     1      -3.871  -8.244   0.000  0.00  0.00    +0.359 C 
ATOM      2 CL   UNL     1      -2.722  -7.280   0.000  0.00  0.00    -0.044 Cl
ATOM      3  F   UNL     1      -5.020  -9.209   0.000  0.00  0.00    -0.184 F 
ATOM      4  F   UNL     1      -2.906  -9.393   0.000  0.00  0.00    -0.184 F 
ENDBRANCH   5   1
BRANCH   5  23
ATOM     23  C   UNL     1      -5.984  -8.059   0.000  0.00  0.00    +0.426 C 
ATOM     24  F   UNL     1      -6.948  -6.910   0.000  0.00  0.00    -0.167 F 
ATOM     25  F   UNL     1      -7.133  -9.024   0.000  0.00  0.00    -0.167 F 
ATOM     26  F   UNL     1      -5.020  -9.209   0.000  0.00  0.00    -0.167 F 
ENDBRANCH   5  23
BRANCH   5   6
ATOM      6  O   UNL     1      -3.686  -6.131   0.000  0.00  0.00    -0.374 OA
ATOM      7  H   UNL     1      -2.774  -6.463   0.000  0.00  0.00    +0.211 HD
ENDBRANCH   5   6
ENDBRANCH   8   5
ENDBRANCH   9   8
BRANCH   9  10
ATOM     10  C   UNL     1      -3.549  -4.647   0.000  0.00  0.00    +0.126 C 
BRANCH  10  11
ATOM     11  C   UNL     1      -3.036  -3.238   0.000  0.00  0.00    +0.246 C 
BRANCH  11  12
ATOM     12  C   UNL     1      -2.523  -1.828   0.000  0.00  0.00    +0.359 C 
ATOM     13  F   UNL     1      -1.113  -2.341   0.000  0.00  0.00    -0.184 F 
ATOM     14 CL   UNL     1      -3.933  -1.315   0.000  0.00  0.00    -0.044 Cl
ATOM     15  F   UNL     1      -2.010  -0.418   0.000  0.00  0.00    -0.184 F 
ENDBRANCH  11  12
BRANCH  11  18
ATOM     18  C   UNL     1      -1.627  -3.751   0.000  0.00  0.00    +0.426 C 
ATOM     19  F   UNL     1      -1.113  -2.341   0.000  0.00  0.00    -0.167 F 
ATOM     20  F   UNL     1      -0.217  -4.264   0.000  0.00  0.00    -0.167 F 
ATOM     21  F   UNL     1      -2.140  -5.160   0.000  0.00  0.00    -0.167 F 
ENDBRANCH  11  18
BRANCH  11  16
ATOM     16  O   UNL     1      -4.446  -2.724   0.000  0.00  0.00    -0.374 OA
ATOM     17  H   UNL     1      -4.614  -1.769   0.000  0.00  0.00    +0.211 HD
ENDBRANCH  11  16
ENDBRANCH  10  11
ENDBRANCH   9  10
TORSDOF 10