REMARK  Name = 122280
REMARK  0 active torsions:
REMARK  status: ('A' for Active; 'I' for Inactive)
REMARK                            x       y       z     vdW  Elec       q    Type
REMARK                         _______ _______ _______ _____ _____    ______ ____
ROOT
ATOM      1  C   UNL     1       1.208   4.315   0.000  0.00  0.00    +0.002 A 
ATOM      2  C   UNL     1       1.364   2.823   0.000  0.00  0.00    +0.002 A 
ATOM      3  C   UNL     1       2.735   2.213   0.000  0.00  0.00    +0.028 A 
ATOM      4  C   UNL     1       3.948   3.095   0.000  0.00  0.00    +0.076 A 
ATOM      5  N   UNL     1       5.415   2.783   0.000  0.00  0.00    -0.265 N 
ATOM      6  C   UNL     1       6.165   1.484   0.000  0.00  0.00    +0.243 C 
ATOM      7  C   UNL     1       7.665   1.484   0.000  0.00  0.00    +0.168 C 
ATOM      8  S   UNL     1       8.415   2.783   0.000  0.00  0.00    -0.143 S 
ATOM      9  C   UNL     1       7.665   4.082   0.000  0.00  0.00    +0.144 C 
ATOM     10  O   UNL     1       5.415   0.185   0.000  0.00  0.00    -0.271 OA
ATOM     11  C   UNL     1       6.165   4.082   0.000  0.00  0.00    +0.127 A 
ATOM     12  N   UNL     1       5.162   5.197   0.000  0.00  0.00    -0.231 NA
ATOM     13  C   UNL     1       3.792   4.587   0.000  0.00  0.00    +0.090 A 
ATOM     14  C   UNL     1       2.421   5.197   0.000  0.00  0.00    +0.030 A 
ENDROOT
TORSDOF 0