REMARK  Name = 124146
REMARK  2 active torsions:
REMARK  status: ('A' for Active; 'I' for Inactive)
REMARK    1  A    between atoms: C_7  and  C_17
REMARK    2  A    between atoms: C_18  and  C_20
REMARK                            x       y       z     vdW  Elec       q    Type
REMARK                         _______ _______ _______ _____ _____    ______ ____
ROOT
ATOM      1  H   UNL     1       0.243  -5.272   0.000  0.00  0.00    +0.124 HD
ATOM      2  N   UNL     1       1.670  -4.809   0.000  0.00  0.00    -0.286 NA
ATOM      3  C   UNL     1       2.884  -5.690   0.000  0.00  0.00    +0.178 C 
ATOM      4  C   UNL     1       4.097  -6.572   0.000  0.00  0.00    +0.266 C 
ATOM      5  O   UNL     1       5.524  -6.108   0.000  0.00  0.00    -0.271 OA
ATOM      6  N   UNL     1       3.634  -7.998   0.000  0.00  0.00    -0.207 N 
ATOM      7  C   UNL     1       4.515  -9.212   0.000  0.00  0.00    +0.223 C 
ATOM      8  C   UNL     1       3.905 -10.582   0.000  0.00  0.00    +0.110 C 
ATOM      9  O   UNL     1       6.007  -9.055   0.000  0.00  0.00    -0.275 OA
ATOM     10  C   UNL     1       2.134  -7.998   0.000  0.00  0.00    +0.051 A 
ATOM     11  C   UNL     1       1.130  -9.113   0.000  0.00  0.00    +0.024 A 
ATOM     12  C   UNL     1      -0.337  -8.801   0.000  0.00  0.00    +0.002 A 
ATOM     13  C   UNL     1      -0.801  -7.375   0.000  0.00  0.00    +0.000 A 
ATOM     14  C   UNL     1       0.203  -6.260   0.000  0.00  0.00    +0.009 A 
ATOM     15  C   UNL     1       1.670  -6.572   0.000  0.00  0.00    +0.018 A 
ATOM     16  N   UNL     1       4.097  -4.809   0.000  0.00  0.00    -0.284 NA
ATOM     17  H   UNL     1       5.524  -5.272   0.000  0.00  0.00    +0.125 HD
ATOM     18  C   UNL     1       3.634  -3.382   0.000  0.00  0.00    +0.067 C 
ATOM     19  C   UNL     1       4.515  -2.168   0.000  0.00  0.00    +0.025 C 
ATOM     20  C   UNL     1       2.134  -3.382   0.000  0.00  0.00    +0.101 C 
ENDROOT
TORSDOF 0