REMARK  Name = 125727
REMARK  5 active torsions:
REMARK  status: ('A' for Active; 'I' for Inactive)
REMARK    1  A    between atoms: C_2  and  C_15
REMARK    2  A    between atoms: C_2  and  C_16
REMARK    3  A    between atoms: C_12  and  C_13
REMARK    4  A    between atoms: C_14  and  C_15
REMARK    5  A    between atoms: C_16  and  C_17
REMARK                            x       y       z     vdW  Elec       q    Type
REMARK                         _______ _______ _______ _____ _____    ______ ____
ROOT
ATOM      1  O   UNL     1       5.330   2.985   0.000  0.00  0.00    -0.274 OA
ATOM      2  C   UNL     1       6.080   1.686   0.000  0.00  0.00    +0.234 C 
ATOM      3  N   UNL     1       7.580   1.686   0.000  0.00  0.00    -0.267 N 
ATOM      4  C   UNL     1       8.330   0.387   0.000  0.00  0.00    +0.143 C 
ATOM      5  S   UNL     1       9.830   0.387   0.000  0.00  0.00    -0.018 S 
ATOM      6  N   UNL     1       7.580  -0.912   0.000  0.00  0.00    -0.267 N 
ATOM      7  H   UNL     1       8.330  -2.211   0.000  0.00  0.00    +0.157 HD
ATOM      8  C   UNL     1       6.080  -0.912   0.000  0.00  0.00    +0.234 C 
ATOM      9  O   UNL     1       5.330  -2.211   0.000  0.00  0.00    -0.274 OA
ATOM     10  H   UNL     1       8.330   2.985   0.000  0.00  0.00    +0.157 HD
ATOM     11  C   UNL     1       5.330   0.387   0.000  0.00  0.00    +0.126 C 
ENDROOT
BRANCH  11  12
ATOM     12  C   UNL     1       4.181  -0.577   0.000  0.00  0.00    +0.022 C 
ATOM     13  C   UNL     1       4.441  -2.055   0.000  0.00  0.00    +0.005 C 
ENDBRANCH  11  12
BRANCH  11  14
ATOM     14  C   UNL     1       4.181   1.351   0.000  0.00  0.00    +0.052 C 
BRANCH  14  15
ATOM     15  C   UNL     1       2.882   0.601   0.000  0.00  0.00    -0.030 C 
ATOM     16  C   UNL     1       1.583   1.351   0.000  0.00  0.00    -0.034 C 
ATOM     17  C   UNL     1       0.284   0.601   0.000  0.00  0.00    +0.035 C 
ENDBRANCH  14  15
ENDBRANCH  11  14
TORSDOF 3