REMARK  Name = 12588
REMARK  4 active torsions:
REMARK  status: ('A' for Active; 'I' for Inactive)
REMARK    1  A    between atoms: N_3  and  C_8
REMARK    2  A    between atoms: C_8  and  C_9
REMARK    3  A    between atoms: C_9  and  C_10
REMARK    4  A    between atoms: C_10  and  C_11
REMARK                            x       y       z     vdW  Elec       q    Type
REMARK                         _______ _______ _______ _____ _____    ______ ____
ROOT
ATOM      1  H   UNL     1       0.170   1.904   0.000  0.00  0.00    +0.148 HD
ATOM      2  N   UNL     1       1.052   3.118   0.000  0.00  0.00    -0.325 N 
ATOM      3  C   UNL     1       2.552   3.118   0.000  0.00  0.00    +0.133 C 
ATOM      4  S   UNL     1       3.433   1.904   0.000  0.00  0.00    -0.019 S 
ATOM      5  N   UNL     1       3.015   4.544   0.000  0.00  0.00    -0.311 N 
ATOM     10  C   UNL     1       1.802   5.426   0.000  0.00  0.00    +0.125 C 
ATOM     11  C   UNL     1       0.588   4.544   0.000  0.00  0.00    +0.122 C 
ENDROOT
BRANCH   5   6
ATOM      6  C   UNL     1       4.442   5.008   0.000  0.00  0.00    +0.107 C 
BRANCH   6   7
ATOM      7  C   UNL     1       5.556   4.004   0.000  0.00  0.00    +0.019 C 
BRANCH   7   8
ATOM      8  C   UNL     1       6.983   4.468   0.000  0.00  0.00    -0.002 C 
ATOM      9  C   UNL     1       8.098   3.464   0.000  0.00  0.00    +0.004 C 
ENDBRANCH   7   8
ENDBRANCH   6   7
ENDBRANCH   5   6
TORSDOF 3