REMARK  Name = 122385
REMARK  4 active torsions:
REMARK  status: ('A' for Active; 'I' for Inactive)
REMARK    1  A    between atoms: C_7  and  S_14
REMARK    2  A    between atoms: C_9  and  C_17
REMARK    3  A    between atoms: C_10  and  C_12
REMARK    4  A    between atoms: N_13  and  S_14
REMARK                            x       y       z     vdW  Elec       q    Type
REMARK                         _______ _______ _______ _____ _____    ______ ____
ROOT
ATOM      1  S   UNL     1      -3.132  -1.037   0.000  0.00  0.00    -0.072 S 
ATOM      2  C   UNL     1      -2.250  -2.250   0.000  0.00  0.00    +0.076 A 
ATOM      3  C   UNL     1      -0.750  -2.250   0.000  0.00  0.00    +0.073 C 
ATOM      4  N   UNL     1      -3.132  -3.463   0.000  0.00  0.00    -0.244 NA
ATOM      5  C   UNL     1      -4.558  -3.000   0.000  0.00  0.00    +0.080 A 
ATOM      6  C   UNL     1      -5.857  -3.750   0.000  0.00  0.00    +0.057 A 
ATOM      7  C   UNL     1      -7.156  -3.000   0.000  0.00  0.00    +0.111 A 
ATOM     16  C   UNL     1      -7.156  -1.500   0.000  0.00  0.00    +0.030 A 
ATOM     17  C   UNL     1      -5.857  -0.750   0.000  0.00  0.00    +0.019 A 
ATOM     18  C   UNL     1      -4.558  -1.500   0.000  0.00  0.00    +0.039 A 
ENDROOT
BRANCH   7   8
ATOM      8  S   UNL     1      -8.455  -3.750   0.000  0.00  0.00    +0.074 S 
ATOM      9  O   UNL     1      -7.705  -5.049   0.000  0.00  0.00    -0.150 OA
ATOM     10  O   UNL     1      -9.205  -2.451   0.000  0.00  0.00    -0.150 OA
BRANCH   8  11
ATOM     11  N   UNL     1      -9.754  -4.500   0.000  0.00  0.00    -0.186 N 
ATOM     12  H   UNL     1      -9.754  -5.484   0.000  0.00  0.00    +0.177 HD
ATOM     13  C   UNL     1     -11.054  -3.750   0.000  0.00  0.00    +0.229 C 
ATOM     14  C   UNL     1     -12.352  -4.500   0.000  0.00  0.00    +0.111 C 
ATOM     15  O   UNL     1     -11.054  -2.250   0.000  0.00  0.00    -0.275 OA
ENDBRANCH   8  11
ENDBRANCH   7   8
TORSDOF 2