REMARK  Name = 12650
REMARK  6 active torsions:
REMARK  status: ('A' for Active; 'I' for Inactive)
REMARK    1  A    between atoms: N_2  and  C_12
REMARK    2  A    between atoms: N_3  and  C_5
REMARK    3  A    between atoms: C_7  and  O_19
REMARK    4  A    between atoms: C_14  and  AS_16
REMARK    5  A    between atoms: AS_16  and  O_17
REMARK    6  A    between atoms: AS_16  and  O_18
REMARK                            x       y       z     vdW  Elec       q    Type
REMARK                         _______ _______ _______ _____ _____    ______ ____
ROOT
ATOM      7  C   UNL     1      -6.751  -4.193   0.000  0.00  0.00    +0.000 A 
ATOM      8  C   UNL     1      -6.751  -5.693   0.000  0.00  0.00    +0.000 A 
ATOM      9  C   UNL     1      -5.452  -6.443   0.000  0.00  0.00    +0.000 A 
ATOM     10  C   UNL     1      -4.153  -5.693   0.000  0.00  0.00    +0.000 A 
ATOM     11  C   UNL     1      -4.153  -4.193   0.000  0.00  0.00    +0.000 A 
ATOM     22  C   UNL     1      -5.452  -3.443   0.000  0.00  0.00    +0.000 A 
ENDROOT
BRANCH   7   2
ATOM      1  O   UNL     1      -9.283  -1.507   0.000  0.00  0.00    +0.000 OA
ATOM      2 AS   UNL     1      -8.894  -2.956   0.000  0.00  0.00    +0.000 As
BRANCH   2   3
ATOM      3  O   UNL     1      -9.955  -4.016   0.000  0.00  0.00    +0.000 OA
ATOM      4  H   UNL     1     -10.892  -3.765   0.000  0.00  0.00    +0.000 HD
ENDBRANCH   2   3
BRANCH   2   5
ATOM      5  O   UNL     1      -7.394  -2.956   0.000  0.00  0.00    +0.000 OA
ATOM      6  H   UNL     1      -6.909  -3.796   0.000  0.00  0.00    +0.000 HD
ENDBRANCH   2   5
ENDBRANCH   7   2
BRANCH  10  12
ATOM     12  N   UNL     1      -2.854  -6.443   0.000  0.00  0.00    +0.000 NA
ATOM     13  N   UNL     1      -2.854  -7.943   0.000  0.00  0.00    +0.000 NA
BRANCH  13  14
ATOM     14  C   UNL     1      -1.555  -8.693   0.000  0.00  0.00    +0.000 A 
ATOM     15  C   UNL     1      -1.555 -10.193   0.000  0.00  0.00    +0.000 A 
ATOM     16  C   UNL     1      -0.256 -10.943   0.000  0.00  0.00    +0.000 A 
ATOM     17  C   UNL     1       1.043 -10.193   0.000  0.00  0.00    +0.000 A 
ATOM     20  C   UNL     1       1.043  -8.693   0.000  0.00  0.00    +0.000 A 
ATOM     21  C   UNL     1      -0.256  -7.943   0.000  0.00  0.00    +0.000 A 
BRANCH  17  18
ATOM     18  O   UNL     1       2.342 -10.943   0.000  0.00  0.00    +0.000 OA
ATOM     19  H   UNL     1       2.342 -11.880   0.000  0.00  0.00    +0.000 HD
ENDBRANCH  17  18
ENDBRANCH  13  14
ENDBRANCH  10  12
TORSDOF 6