REMARK  Name = 125095
REMARK  7 active torsions:
REMARK  status: ('A' for Active; 'I' for Inactive)
REMARK    1  A    between atoms: O_1  and  C_3
REMARK    2  A    between atoms: O_1  and  C_24
REMARK    3  A    between atoms: C_3  and  C_5
REMARK    4  A    between atoms: C_11  and  O_26
REMARK    5  A    between atoms: C_13  and  C_14
REMARK    6  A    between atoms: C_19  and  S_22
REMARK    7  A    between atoms: C_24  and  C_25
REMARK                            x       y       z     vdW  Elec       q    Type
REMARK                         _______ _______ _______ _____ _____    ______ ____
ROOT
ATOM      5  C   UNL     1       2.223   6.649   0.000  0.00  0.00    +0.060 A 
ATOM      6  C   UNL     1       3.522   5.899   0.000  0.00  0.00    +0.028 A 
ATOM      7  C   UNL     1       4.821   6.649   0.000  0.00  0.00    +0.043 A 
ATOM      8  C   UNL     1       6.120   5.899   0.000  0.00  0.00    +0.128 A 
ATOM     11  C   UNL     1       7.419   6.649   0.000  0.00  0.00    +0.074 A 
ATOM     12  C   UNL     1       7.419   8.149   0.000  0.00  0.00    +0.075 A 
ATOM     23  N   UNL     1       6.120   8.899   0.000  0.00  0.00    -0.246 NA
ATOM     24  C   UNL     1       4.821   8.149   0.000  0.00  0.00    +0.075 A 
ATOM     25  C   UNL     1       3.522   8.899   0.000  0.00  0.00    +0.029 A 
ATOM     26  C   UNL     1       2.223   8.149   0.000  0.00  0.00    +0.017 A 
ENDROOT
BRANCH  12  13
ATOM     13  C   UNL     1       8.718   8.899   0.000  0.00  0.00    +0.001 A 
ATOM     14  C   UNL     1      10.017   8.149   0.000  0.00  0.00    +0.012 A 
ATOM     15  C   UNL     1      11.316   8.899   0.000  0.00  0.00    +0.030 A 
ATOM     16  C   UNL     1      11.316  10.400   0.000  0.00  0.00    +0.122 A 
ATOM     21  C   UNL     1      10.017  11.150   0.000  0.00  0.00    +0.030 A 
ATOM     22  C   UNL     1       8.718  10.400   0.000  0.00  0.00    +0.012 A 
BRANCH  16  17
ATOM     17  S   UNL     1      12.615  11.150   0.000  0.00  0.00    +0.147 S 
ATOM     18  F   UNL     1      13.914  11.900   0.000  0.00  0.00    -0.056 F 
ATOM     19  O   UNL     1      13.365   9.851   0.000  0.00  0.00    -0.138 OA
ATOM     20  O   UNL     1      11.865  12.449   0.000  0.00  0.00    -0.138 OA
ENDBRANCH  16  17
ENDBRANCH  12  13
BRANCH   5   4
ATOM      4  C   UNL     1       0.924   5.899   0.000  0.00  0.00    +0.339 C 
ATOM     27  O   UNL     1      -0.375   6.649   0.000  0.00  0.00    -0.245 OA
BRANCH   4   1
ATOM      1  O   UNL     1       0.924   4.399   0.000  0.00  0.00    -0.461 OA
BRANCH   1   2
ATOM      2  C   UNL     1      -0.375   3.650   0.000  0.00  0.00    +0.229 C 
ATOM      3  C   UNL     1      -1.674   4.399   0.000  0.00  0.00    +0.048 C 
ENDBRANCH   1   2
ENDBRANCH   4   1
ENDBRANCH   5   4
BRANCH   8   9
ATOM      9  O   UNL     1       6.120   4.399   0.000  0.00  0.00    -0.506 OA
ATOM     10  H   UNL     1       5.309   3.931   0.000  0.00  0.00    +0.292 HD
ENDBRANCH   8   9
TORSDOF 6