REMARK  Name = 126757
REMARK  1 active torsions:
REMARK  status: ('A' for Active; 'I' for Inactive)
REMARK    1  A    between atoms: C_4  and  N_14
REMARK                            x       y       z     vdW  Elec       q    Type
REMARK                         _______ _______ _______ _____ _____    ______ ____
ROOT
ATOM      1  C   UNL     1      -4.406  -4.910   0.000  0.00  0.00    +0.069 A 
ATOM      2  N   UNL     1      -2.980  -4.447   0.000  0.00  0.00    -0.311 N 
ATOM      3  H   UNL     1      -2.676  -3.510   0.000  0.00  0.00    +0.170 HD
ATOM      4  C   UNL     1      -2.098  -5.660   0.000  0.00  0.00    +0.271 A 
ATOM      5  N   UNL     1      -0.598  -5.660   0.000  0.00  0.00    -0.213 N 
ATOM      6  H   UNL     1      -0.106  -6.513   0.000  0.00  0.00    +0.268 HD
ATOM      7  C   UNL     1       0.152  -4.361   0.000  0.00  0.00    +0.383 C 
ATOM      8  N   UNL     1      -0.598  -3.062   0.000  0.00  0.00    -0.289 N 
ATOM      9  H   UNL     1      -1.583  -3.062   0.000  0.00  0.00    +0.255 HD
ATOM     10  H   UNL     1      -0.106  -2.209   0.000  0.00  0.00    +0.255 HD
ATOM     11  N   UNL     1       1.652  -4.361   0.000  0.00  0.00    -0.129 NA
ATOM     12  H   UNL     1       2.144  -5.214   0.000  0.00  0.00    +0.306 HD
ATOM     13  N   UNL     1      -2.980  -6.874   0.000  0.00  0.00    -0.198 NA
ATOM     14  C   UNL     1      -5.705  -4.160   0.000  0.00  0.00    +0.034 A 
ATOM     15  C   UNL     1      -7.005  -4.910   0.000  0.00  0.00    +0.086 A 
ATOM     16  C   UNL     1      -7.005  -6.410   0.000  0.00  0.00    +0.275 A 
ATOM     20  C   UNL     1      -5.705  -7.160   0.000  0.00  0.00    +0.114 A 
ATOM     21  C   UNL     1      -4.406  -6.410   0.000  0.00  0.00    +0.099 A 
ENDROOT
BRANCH  16  17
ATOM     17  N   UNL     1      -8.303  -7.160   0.000  0.00  0.00    +0.080 N 
ATOM     18  O   UNL     1      -8.303  -8.660   0.000  0.00  0.00    +0.041 OA
ATOM     19  O   UNL     1      -9.603  -6.410   0.000  0.00  0.00    -0.576 OA
ENDBRANCH  16  17
TORSDOF 1