REMARK  Name = 122987
REMARK  1 active torsions:
REMARK  status: ('A' for Active; 'I' for Inactive)
REMARK    1  A    between atoms: N_15  and  N_16
REMARK                            x       y       z     vdW  Elec       q    Type
REMARK                         _______ _______ _______ _____ _____    ______ ____
ROOT
ATOM      1  C   UNL     1       3.419  -1.479   0.000  0.00  0.00    +0.002 C 
ATOM      2  C   UNL     1       4.561  -0.506   0.000  0.00  0.00    +0.014 C 
ATOM      3  C   UNL     1       3.988   0.880   0.000  0.00  0.00    +0.036 C 
ATOM      4  C   UNL     1       2.046   0.523   0.000  0.00  0.00    +0.048 C 
ATOM      5  N   UNL     1       0.551   0.642   0.000  0.00  0.00    -0.158 NA
ATOM     14  C   UNL     1       2.493   0.764   0.000  0.00  0.00    +0.014 C 
ATOM     15  C   UNL     1       3.460   0.021   0.000  0.00  0.00    +0.042 C 
ATOM     16  C   UNL     1       2.141  -0.694   0.000  0.00  0.00    +0.002 C 
ENDROOT
BRANCH   5   6
ATOM      6  N   UNL     1      -0.093   1.997   0.000  0.00  0.00    -0.158 NA
ATOM      7  C   UNL     1       0.758   3.232   0.000  0.00  0.00    +0.048 C 
ATOM      8  C   UNL     1       0.259   4.646   0.000  0.00  0.00    +0.036 C 
ATOM      9  C   UNL     1       1.450   5.558   0.000  0.00  0.00    +0.014 C 
ATOM     10  C   UNL     1       2.685   4.707   0.000  0.00  0.00    +0.002 C 
ATOM     11  C   UNL     1       3.716   3.618   0.000  0.00  0.00    +0.002 C 
ATOM     12  C   UNL     1       2.331   4.194   0.000  0.00  0.00    +0.014 C 
ATOM     13  C   UNL     1       2.257   3.270   0.000  0.00  0.00    +0.042 C 
ENDBRANCH   5   6
TORSDOF 1