REMARK  Name = 122131
REMARK  2 active torsions:
REMARK  status: ('A' for Active; 'I' for Inactive)
REMARK    1  A    between atoms: C_2  and  O_11
REMARK    2  A    between atoms: C_10  and  C_12
REMARK                            x       y       z     vdW  Elec       q    Type
REMARK                         _______ _______ _______ _____ _____    ______ ____
ROOT
ATOM      1  N   UNL     1       1.108   7.920   0.000  0.00  0.00    -0.251 NA
ATOM      2  C   UNL     1      -0.191   7.170   0.000  0.00  0.00    +0.113 A 
ATOM      3  C   UNL     1      -0.191   5.670   0.000  0.00  0.00    +0.014 A 
ATOM      4  C   UNL     1      -1.490   4.920   0.000  0.00  0.00    +0.024 A 
ATOM      7  C   UNL     1      -2.789   5.670   0.000  0.00  0.00    +0.015 A 
ATOM      8  C   UNL     1      -2.789   7.170   0.000  0.00  0.00    +0.048 A 
ATOM      9  C   UNL     1       1.108   4.920   0.000  0.00  0.00    +0.012 A 
ATOM     10  C   UNL     1       2.407   5.670   0.000  0.00  0.00    +0.020 A 
ATOM     11  C   UNL     1      -1.490   7.920   0.000  0.00  0.00    +0.143 A 
ATOM     14  C   UNL     1       2.407   7.170   0.000  0.00  0.00    +0.111 A 
ENDROOT
BRANCH   4   5
ATOM      5  C   UNL     1      -1.490   3.420   0.000  0.00  0.00    +0.259 C 
ATOM      6  O   UNL     1      -2.789   2.670   0.000  0.00  0.00    -0.296 OA
ENDBRANCH   4   5
BRANCH  11  12
ATOM     12  O   UNL     1      -1.490   9.419   0.000  0.00  0.00    -0.505 OA
ATOM     13  H   UNL     1      -0.678   9.888   0.000  0.00  0.00    +0.292 HD
ENDBRANCH  11  12
TORSDOF 2