REMARK  Name = 121908
REMARK  8 active torsions:
REMARK  status: ('A' for Active; 'I' for Inactive)
REMARK    1  A    between atoms: N_4  and  C_11
REMARK    2  A    between atoms: O_6  and  C_13
REMARK    3  A    between atoms: O_6  and  C_18
REMARK    4  A    between atoms: C_8  and  C_17
REMARK    5  A    between atoms: C_18  and  C_19
REMARK    6  A    between atoms: C_19  and  C_20
REMARK    7  A    between atoms: C_20  and  C_21
REMARK    8  A    between atoms: C_21  and  C_22
REMARK                            x       y       z     vdW  Elec       q    Type
REMARK                         _______ _______ _______ _____ _____    ______ ____
ROOT
ATOM     11  C   UNL     1       0.375   6.649   0.000  0.00  0.00    +0.043 A 
ATOM     12  C   UNL     1       1.674   5.899   0.000  0.00  0.00    +0.027 A 
ATOM     13  C   UNL     1       2.973   6.649   0.000  0.00  0.00    +0.047 A 
ATOM     14  C   UNL     1       2.973   8.149   0.000  0.00  0.00    +0.121 A 
ATOM     15  C   UNL     1       1.674   8.899   0.000  0.00  0.00    +0.047 A 
ATOM     22  C   UNL     1       0.375   8.149   0.000  0.00  0.00    +0.027 A 
ENDROOT
BRANCH  11  10
ATOM      1  O   UNL     1      -2.223   8.149   0.000  0.00  0.00    -0.275 OA
ATOM      2  C   UNL     1      -2.223   6.649   0.000  0.00  0.00    +0.230 C 
ATOM      3  C   UNL     1      -3.522   5.899   0.000  0.00  0.00    +0.090 C 
ATOM      4  C   UNL     1      -4.821   6.649   0.000  0.00  0.00    +0.019 C 
ATOM      5  C   UNL     1      -3.522   4.399   0.000  0.00  0.00    +0.115 C 
ATOM      6  N   UNL     1      -2.223   3.650   0.000  0.00  0.00    -0.325 N 
ATOM      7  H   UNL     1      -2.223   2.150   0.000  0.00  0.00    +0.148 HD
ATOM      8  C   UNL     1      -0.924   4.399   0.000  0.00  0.00    +0.144 C 
ATOM      9  S   UNL     1       0.375   3.650   0.000  0.00  0.00    -0.018 S 
ATOM     10  N   UNL     1      -0.924   5.899   0.000  0.00  0.00    -0.222 N 
ENDBRANCH  11  10
BRANCH  14  16
ATOM     16  O   UNL     1       4.272   8.899   0.000  0.00  0.00    -0.492 OA
BRANCH  16  17
ATOM     17  C   UNL     1       4.272  10.400   0.000  0.00  0.00    +0.229 C 
BRANCH  17  18
ATOM     18  C   UNL     1       2.973  11.150   0.000  0.00  0.00    +0.041 C 
BRANCH  18  19
ATOM     19  C   UNL     1       2.973  12.650   0.000  0.00  0.00    +0.003 C 
BRANCH  19  20
ATOM     20  C   UNL     1       1.674  13.400   0.000  0.00  0.00    -0.003 C 
ATOM     21  C   UNL     1       1.674  14.900   0.000  0.00  0.00    +0.004 C 
ENDBRANCH  19  20
ENDBRANCH  18  19
ENDBRANCH  17  18
ENDBRANCH  16  17
ENDBRANCH  14  16
TORSDOF 6