REMARK  Name = 122376
REMARK  2 active torsions:
REMARK  status: ('A' for Active; 'I' for Inactive)
REMARK    1  A    between atoms: C_5  and  C_8
REMARK    2  A    between atoms: C_8  and  C_17
REMARK                            x       y       z     vdW  Elec       q    Type
REMARK                         _______ _______ _______ _____ _____    ______ ____
ROOT
ATOM      8  C   UNL     1      -5.833  -2.713   0.000  0.00  0.00    -0.004 A 
ATOM      9  C   UNL     1      -5.833  -4.213   0.000  0.00  0.00    +0.008 A 
ATOM     10  C   UNL     1      -7.132  -4.963   0.000  0.00  0.00    +0.009 A 
ATOM     11  C   UNL     1      -8.431  -4.213   0.000  0.00  0.00    -0.018 A 
ATOM     12  C   UNL     1      -9.730  -4.963   0.000  0.00  0.00    +0.008 A 
ATOM     13  C   UNL     1     -11.029  -4.213   0.000  0.00  0.00    +0.001 A 
ATOM     14  C   UNL     1     -11.029  -2.713   0.000  0.00  0.00    +0.001 A 
ATOM     15  C   UNL     1      -9.730  -1.964   0.000  0.00  0.00    +0.008 A 
ATOM     16  C   UNL     1      -8.431  -2.713   0.000  0.00  0.00    -0.018 A 
ATOM     17  C   UNL     1      -7.132  -1.964   0.000  0.00  0.00    +0.016 A 
ENDROOT
BRANCH   8   6
ATOM      1  O   UNL     1      -3.419  -0.960   0.000  0.00  0.00    -0.454 OA
ATOM      2  C   UNL     1      -2.120  -1.710   0.000  0.00  0.00    +0.308 C 
ATOM      3  C   UNL     1      -2.432  -3.177   0.000  0.00  0.00    +0.125 C 
ATOM      4  C   UNL     1      -3.924  -3.334   0.000  0.00  0.00    +0.064 C 
ATOM      5  O   UNL     1      -0.750  -1.100   0.000  0.00  0.00    -0.251 OA
ATOM      6  C   UNL     1      -4.534  -1.964   0.000  0.00  0.00    +0.136 C 
ATOM      7  C   UNL     1      -5.416  -0.750   0.000  0.00  0.00    +0.061 C 
ENDBRANCH   8   6
TORSDOF 1