REMARK  Name = 12628
REMARK  8 active torsions:
REMARK  status: ('A' for Active; 'I' for Inactive)
REMARK    1  A    between atoms: C_3  and  O_14
REMARK    2  A    between atoms: C_5  and  N_11
REMARK    3  A    between atoms: C_6  and  AS_8
REMARK    4  A    between atoms: AS_8  and  O_9
REMARK    5  A    between atoms: AS_8  and  O_10
REMARK    6  A    between atoms: O_14  and  C_15
REMARK    7  A    between atoms: C_15  and  C_16
REMARK    8  A    between atoms: C_16  and  O_18
REMARK                            x       y       z     vdW  Elec       q    Type
REMARK                         _______ _______ _______ _____ _____    ______ ____
ROOT
ATOM      7  C   UNL     1      -6.120  -5.899   0.000  0.00  0.00    +0.000 A 
ATOM      8  C   UNL     1      -4.821  -6.649   0.000  0.00  0.00    +0.000 A 
ATOM      9  C   UNL     1      -3.522  -5.899   0.000  0.00  0.00    +0.000 A 
ATOM     13  C   UNL     1      -3.522  -4.399   0.000  0.00  0.00    +0.000 A 
ATOM     20  C   UNL     1      -4.821  -3.650   0.000  0.00  0.00    +0.000 A 
ATOM     21  C   UNL     1      -6.120  -4.399   0.000  0.00  0.00    +0.000 A 
ENDROOT
BRANCH   9  10
ATOM     10  N   UNL     1      -2.223  -6.649   0.000  0.00  0.00    +1.000 N 
ATOM     11  O   UNL     1      -2.223  -8.149   0.000  0.00  0.00    +0.000 OA
ATOM     12  O   UNL     1      -0.924  -5.899   0.000  0.00  0.00    -1.000 OA
ENDBRANCH   9  10
BRANCH   7   2
ATOM      1  O   UNL     1      -9.713  -6.749   0.000  0.00  0.00    +0.000 OA
ATOM      2 AS   UNL     1      -8.264  -7.137   0.000  0.00  0.00    +0.000 As
BRANCH   2   3
ATOM      3  O   UNL     1      -7.875  -8.586   0.000  0.00  0.00    +0.000 OA
ATOM      4  H   UNL     1      -8.561  -9.272   0.000  0.00  0.00    +0.000 HD
ENDBRANCH   2   3
BRANCH   2   5
ATOM      5  O   UNL     1      -7.514  -5.838   0.000  0.00  0.00    +0.000 OA
ATOM      6  H   UNL     1      -6.544  -5.838   0.000  0.00  0.00    +0.000 HD
ENDBRANCH   2   5
ENDBRANCH   7   2
BRANCH  13  14
ATOM     14  O   UNL     1      -2.223  -3.650   0.000  0.00  0.00    +0.000 OA
BRANCH  14  15
ATOM     15  C   UNL     1      -0.924  -4.399   0.000  0.00  0.00    +0.000 C 
BRANCH  15  16
ATOM     16  C   UNL     1       0.375  -3.650   0.000  0.00  0.00    +0.000 C 
ATOM     19  O   UNL     1       1.674  -4.399   0.000  0.00  0.00    +0.000 OA
BRANCH  16  17
ATOM     17  O   UNL     1       0.375  -2.150   0.000  0.00  0.00    +0.000 OA
ATOM     18  H   UNL     1       1.186  -1.681   0.000  0.00  0.00    +0.000 HD
ENDBRANCH  16  17
ENDBRANCH  15  16
ENDBRANCH  14  15
ENDBRANCH  13  14
TORSDOF 8