REMARK  Name = 12644
REMARK  7 active torsions:
REMARK  status: ('A' for Active; 'I' for Inactive)
REMARK    1  A    between atoms: C_4  and  N_11
REMARK    2  A    between atoms: C_7  and  AS_8
REMARK    3  A    between atoms: AS_8  and  O_9
REMARK    4  A    between atoms: AS_8  and  O_10
REMARK    5  A    between atoms: C_12  and  O_14
REMARK    6  A    between atoms: O_14  and  C_15
REMARK    7  A    between atoms: C_15  and  C_16
REMARK                            x       y       z     vdW  Elec       q    Type
REMARK                         _______ _______ _______ _____ _____    ______ ____
ROOT
ATOM      7  C   UNL     1      -4.172  -6.274   0.000  0.00  0.00    +0.000 A 
ATOM      8  C   UNL     1      -5.471  -5.524   0.000  0.00  0.00    +0.000 A 
ATOM      9  C   UNL     1      -5.471  -4.024   0.000  0.00  0.00    +0.000 A 
ATOM     10  C   UNL     1      -4.172  -3.275   0.000  0.00  0.00    +0.000 A 
ATOM     11  C   UNL     1      -2.873  -4.024   0.000  0.00  0.00    +0.000 A 
ATOM     19  C   UNL     1      -2.873  -5.524   0.000  0.00  0.00    +0.000 A 
ENDROOT
BRANCH  11  12
ATOM     12  N   UNL     1      -1.574  -3.275   0.000  0.00  0.00    +0.000 N 
ATOM     13  H   UNL     1      -1.574  -2.290   0.000  0.00  0.00    +0.000 HD
ATOM     14  C   UNL     1      -0.275  -4.024   0.000  0.00  0.00    +0.000 C 
ATOM     18  O   UNL     1       1.025  -3.275   0.000  0.00  0.00    +0.000 OA
BRANCH  14  15
ATOM     15  O   UNL     1      -0.275  -5.524   0.000  0.00  0.00    +0.000 OA
BRANCH  15  16
ATOM     16  C   UNL     1       1.025  -6.274   0.000  0.00  0.00    +0.000 C 
ATOM     17  C   UNL     1       2.324  -5.524   0.000  0.00  0.00    +0.000 C 
ENDBRANCH  15  16
ENDBRANCH  14  15
ENDBRANCH  11  12
BRANCH   7   2
ATOM      1  O   UNL     1      -2.672  -7.774   0.000  0.00  0.00    +0.000 OA
ATOM      2 AS   UNL     1      -4.172  -7.774   0.000  0.00  0.00    +0.000 As
BRANCH   2   3
ATOM      3  O   UNL     1      -4.172  -9.274   0.000  0.00  0.00    +0.000 OA
ATOM      4  H   UNL     1      -5.012  -9.759   0.000  0.00  0.00    +0.000 HD
ENDBRANCH   2   3
BRANCH   2   5
ATOM      5  O   UNL     1      -5.672  -7.774   0.000  0.00  0.00    +0.000 OA
ATOM      6  H   UNL     1      -6.157  -6.934   0.000  0.00  0.00    +0.000 HD
ENDBRANCH   2   5
ENDBRANCH   7   2
TORSDOF 6