REMARK  Name = 12666
REMARK  6 active torsions:
REMARK  status: ('A' for Active; 'I' for Inactive)
REMARK    1  A    between atoms: C_4  and  C_18
REMARK    2  A    between atoms: C_5  and  C_20
REMARK    3  A    between atoms: C_10  and  N_17
REMARK    4  A    between atoms: C_12  and  AS_14
REMARK    5  A    between atoms: AS_14  and  O_15
REMARK    6  A    between atoms: AS_14  and  O_16
REMARK                            x       y       z     vdW  Elec       q    Type
REMARK                         _______ _______ _______ _____ _____    ______ ____
ROOT
ATOM     11  N   UNL     1       5.665   5.810   0.000  0.00  0.00    +0.000 N 
ATOM     12  H   UNL     1       6.517   5.317   0.000  0.00  0.00    +0.000 HD
ATOM     13  C   UNL     1       5.665   7.310   0.000  0.00  0.00    +0.000 C 
ATOM     14  O   UNL     1       4.366   8.060   0.000  0.00  0.00    +0.000 OA
ENDROOT
BRANCH  11  10
ATOM      7  C   UNL     1       1.313   3.297   0.000  0.00  0.00    +0.000 A 
ATOM      8  C   UNL     1       2.612   2.547   0.000  0.00  0.00    +0.000 A 
ATOM      9  C   UNL     1       3.911   3.297   0.000  0.00  0.00    +0.000 A 
ATOM     10  C   UNL     1       3.911   4.797   0.000  0.00  0.00    +0.000 A 
ATOM     26  C   UNL     1       2.612   5.547   0.000  0.00  0.00    +0.000 A 
ATOM     27  C   UNL     1       1.313   4.797   0.000  0.00  0.00    +0.000 A 
BRANCH   7   2
ATOM      1  O   UNL     1      -1.890   2.673   0.000  0.00  0.00    +0.000 OA
ATOM      2 AS   UNL     1      -0.441   2.285   0.000  0.00  0.00    +0.000 As
BRANCH   2   3
ATOM      3  O   UNL     1      -0.052   0.836   0.000  0.00  0.00    +0.000 OA
ATOM      4  H   UNL     1      -0.738   0.150   0.000  0.00  0.00    +0.000 HD
ENDBRANCH   2   3
BRANCH   2   5
ATOM      5  O   UNL     1       0.309   3.584   0.000  0.00  0.00    +0.000 OA
ATOM      6  H   UNL     1       1.279   3.584   0.000  0.00  0.00    +0.000 HD
ENDBRANCH   2   5
ENDBRANCH   7   2
ENDBRANCH  11  10
BRANCH  13  15
ATOM     15  C   UNL     1       6.964   8.060   0.000  0.00  0.00    +0.000 A 
ATOM     16  C   UNL     1       8.263   7.310   0.000  0.00  0.00    +0.000 A 
ATOM     17  C   UNL     1       9.562   8.060   0.000  0.00  0.00    +0.000 A 
ATOM     18  C   UNL     1       9.562   9.560   0.000  0.00  0.00    +0.000 A 
ATOM     24  C   UNL     1       8.263  10.310   0.000  0.00  0.00    +0.000 A 
ATOM     25  C   UNL     1       6.964   9.560   0.000  0.00  0.00    +0.000 A 
BRANCH  18  19
ATOM     19  C   UNL     1      10.861  10.310   0.000  0.00  0.00    +0.000 C 
ATOM     20  N   UNL     1      12.160   9.560   0.000  0.00  0.00    +0.000 N 
ATOM     21  H   UNL     1      13.013  10.052   0.000  0.00  0.00    +0.000 HD
ATOM     22  H   UNL     1      12.160   8.575   0.000  0.00  0.00    +0.000 HD
ATOM     23  O   UNL     1      10.861  11.810   0.000  0.00  0.00    +0.000 OA
ENDBRANCH  18  19
ENDBRANCH  13  15
TORSDOF 6