REMARK  Name = 123527
REMARK  7 active torsions:
REMARK  status: ('A' for Active; 'I' for Inactive)
REMARK    1  A    between atoms: S_1  and  C_12
REMARK    2  A    between atoms: S_1  and  C_30
REMARK    3  A    between atoms: C_10  and  C_12
REMARK    4  A    between atoms: C_25  and  O_27
REMARK    5  A    between atoms: C_25  and  C_28
REMARK    6  A    between atoms: C_28  and  N_29
REMARK    7  A    between atoms: C_28  and  C_30
REMARK                            x       y       z     vdW  Elec       q    Type
REMARK                         _______ _______ _______ _____ _____    ______ ____
ROOT
ATOM     11  C   UNK     1       0.691  -0.436   0.000  0.00  0.00    +0.093 C 
ATOM     12  C   UNK     1       2.113  -0.913   0.000  0.00  0.00    -0.015 A 
ATOM     13  C   UNK     1       3.419  -0.174   0.000  0.00  0.00    +0.006 A 
ATOM     14  C   UNK     1       4.711  -0.936   0.000  0.00  0.00    +0.000 A 
ATOM     15  C   UNK     1       4.698  -2.436   0.000  0.00  0.00    +0.001 A 
ATOM     16  C   UNK     1       3.392  -3.174   0.000  0.00  0.00    +0.009 A 
ATOM     17  C   UNK     1       2.100  -2.413   0.000  0.00  0.00    -0.012 A 
ATOM     18  C   UNK     1       0.669  -2.863   0.000  0.00  0.00    -0.012 A 
ATOM     19  C   UNK     1       0.047  -4.228   0.000  0.00  0.00    +0.009 A 
ATOM     20  C   UNK     1      -1.447  -4.372   0.000  0.00  0.00    +0.001 A 
ATOM     21  C   UNK     1      -2.317  -3.150   0.000  0.00  0.00    +0.000 A 
ATOM     22  C   UNK     1      -1.695  -1.785   0.000  0.00  0.00    +0.006 A 
ATOM     23  C   UNK     1      -0.202  -1.642   0.000  0.00  0.00    -0.015 A 
ENDROOT
BRANCH  11  24
ATOM     24  C   UNK     1       1.313   0.928   0.000  0.00  0.00    -0.015 A 
ATOM     25  C   UNK     1       0.443   2.150   0.000  0.00  0.00    -0.013 A 
ATOM     26  C   UNK     1      -1.051   2.006   0.000  0.00  0.00    +0.009 A 
ATOM     27  C   UNK     1      -1.921   3.228   0.000  0.00  0.00    +0.001 A 
ATOM     28  C   UNK     1      -1.299   4.593   0.000  0.00  0.00    +0.001 A 
ATOM     29  C   UNK     1       0.194   4.736   0.000  0.00  0.00    +0.008 A 
ATOM     30  C   UNK     1       1.065   3.515   0.000  0.00  0.00    -0.018 A 
ATOM     31  C   UNK     1       2.558   3.658   0.000  0.00  0.00    +0.008 A 
ATOM     32  C   UNK     1       3.429   2.436   0.000  0.00  0.00    +0.001 A 
ATOM     33  C   UNK     1       2.806   1.072   0.000  0.00  0.00    +0.006 A 
ENDBRANCH  11  24
BRANCH  11   1
ATOM      1  S   UNK     1      -0.601   0.325   0.000  0.00  0.00    -0.138 S 
BRANCH   1   2
ATOM      2  C   UNK     1      -1.907  -0.413   0.000  0.00  0.00    +0.100 C 
BRANCH   2   3
ATOM      3  C   UNK     1      -3.199   0.349   0.000  0.00  0.00    +0.171 C 
BRANCH   3   4
ATOM      4  N   UNK     1      -3.186   1.849   0.000  0.00  0.00    -0.318 NA
ATOM      5  H   UNK     1      -4.065   2.367   0.000  0.00  0.00    +0.119 HD
ATOM      6  H   UNK     1      -2.298   2.351   0.000  0.00  0.00    +0.119 HD
ENDBRANCH   3   4
BRANCH   3   7
ATOM      7  C   UNK     1      -4.505  -0.390   0.000  0.00  0.00    +0.323 C 
ATOM     10  O   UNK     1      -5.797   0.372   0.000  0.00  0.00    -0.249 OA
BRANCH   7   8
ATOM      8  O   UNK     1      -4.519  -1.890   0.000  0.00  0.00    -0.480 OA
ATOM      9  H   UNK     1      -5.334  -2.351   0.000  0.00  0.00    +0.295 HD
ENDBRANCH   7   8
ENDBRANCH   3   7
ENDBRANCH   2   3
ENDBRANCH   1   2
ENDBRANCH  11   1
TORSDOF 7