REMARK  Name = 122297
REMARK  4 active torsions:
REMARK  status: ('A' for Active; 'I' for Inactive)
REMARK    1  A    between atoms: N_2  and  S_14
REMARK    2  A    between atoms: C_6  and  N_17
REMARK    3  A    between atoms: C_8  and  S_14
REMARK    4  A    between atoms: C_11  and  C_13
REMARK                            x       y       z     vdW  Elec       q    Type
REMARK                         _______ _______ _______ _____ _____    ______ ____
ROOT
ATOM     10  S   UNL     1      -5.772  -2.250   0.000  0.00  0.00    +0.093 S 
ATOM     11  O   UNL     1      -5.772  -3.750   0.000  0.00  0.00    -0.150 OA
ATOM     12  O   UNL     1      -5.772  -0.750   0.000  0.00  0.00    -0.150 OA
ENDROOT
BRANCH  10  13
ATOM     13  C   UNL     1      -7.272  -2.250   0.000  0.00  0.00    +0.109 A 
ATOM     14  C   UNL     1      -8.022  -3.549   0.000  0.00  0.00    +0.029 A 
ATOM     15  C   UNL     1      -9.522  -3.549   0.000  0.00  0.00    +0.005 A 
ATOM     16  C   UNL     1     -10.272  -2.250   0.000  0.00  0.00    -0.050 A 
ATOM     17  C   UNL     1     -11.772  -2.250   0.000  0.00  0.00    +0.044 C 
ATOM     18  C   UNL     1      -9.522  -0.951   0.000  0.00  0.00    +0.005 A 
ATOM     19  C   UNL     1      -8.022  -0.951   0.000  0.00  0.00    +0.029 A 
ENDBRANCH  10  13
BRANCH  10   9
ATOM      1  H   UNL     1      -3.854  -4.890   0.000  0.00  0.00    +0.319 HD
ATOM      2  N   UNL     1      -3.390  -3.463   0.000  0.00  0.00    -0.139 N 
ATOM      3  C   UNL     1      -1.964  -3.000   0.000  0.00  0.00    +0.270 C 
ATOM      7  C   UNL     1      -1.964  -1.500   0.000  0.00  0.00    +0.088 C 
ATOM      8  C   UNL     1      -3.390  -1.037   0.000  0.00  0.00    +0.191 C 
ATOM      9  N   UNL     1      -4.272  -2.250   0.000  0.00  0.00    -0.017 NA
BRANCH   3   4
ATOM      4  N   UNL     1      -0.750  -3.882   0.000  0.00  0.00    -0.250 N 
ATOM      5  H   UNL     1       0.149  -3.481   0.000  0.00  0.00    +0.288 HD
ATOM      6  H   UNL     1      -0.853  -4.861   0.000  0.00  0.00    +0.288 HD
ENDBRANCH   3   4
ENDBRANCH  10   9
TORSDOF 3