REMARK  Name = 123797
REMARK  4 active torsions:
REMARK  status: ('A' for Active; 'I' for Inactive)
REMARK    1  A    between atoms: N_2  and  C_9
REMARK    2  A    between atoms: C_4  and  C_6
REMARK    3  A    between atoms: C_9  and  C_10
REMARK    4  A    between atoms: C_9  and  C_11
REMARK                            x       y       z     vdW  Elec       q    Type
REMARK                         _______ _______ _______ _____ _____    ______ ____
ROOT
ATOM      1  N   UNL     1       4.017   2.534   0.000  0.00  0.00    -0.155 NA
ATOM      2  C   UNL     1       2.517   2.534   0.000  0.00  0.00    +0.156 A 
ATOM      3  N   UNL     1       1.636   1.320   0.000  0.00  0.00    -0.341 N 
ATOM      4  H   UNL     1       2.036   0.421   0.000  0.00  0.00    +0.144 HD
ATOM      5  H   UNL     1       0.657   1.423   0.000  0.00  0.00    +0.144 HD
ATOM      6  C   UNL     1       2.054   3.960   0.000  0.00  0.00    +0.110 A 
ATOM      9  C   UNL     1       3.267   4.842   0.000  0.00  0.00    +0.129 A 
ATOM     10  N   UNL     1       4.481   3.960   0.000  0.00  0.00    -0.266 N 
ENDROOT
BRANCH  10  11
ATOM     11  C   UNL     1       5.907   4.424   0.000  0.00  0.00    +0.101 C 
ATOM     12  C   UNL     1       6.219   5.891   0.000  0.00  0.00    +0.032 C 
ATOM     13  C   UNL     1       7.022   3.420   0.000  0.00  0.00    +0.032 C 
ENDBRANCH  10  11
BRANCH   6   7
ATOM      7  C   UNL     1       0.627   4.424   0.000  0.00  0.00    +0.104 C 
ATOM      8  N   UNL     1      -0.799   4.887   0.000  0.00  0.00    -0.191 NA
ENDBRANCH   6   7
TORSDOF 2