REMARK  Name = 12262
REMARK  6 active torsions:
REMARK  status: ('A' for Active; 'I' for Inactive)
REMARK    1  A    between atoms: N_2  and  C_22
REMARK    2  A    between atoms: C_7  and  C_22
REMARK    3  A    between atoms: C_9  and  O_23
REMARK    4  A    between atoms: C_17  and  O_19
REMARK    5  A    between atoms: O_19  and  C_20
REMARK    6  A    between atoms: C_20  and  C_21
REMARK                            x       y       z     vdW  Elec       q    Type
REMARK                         _______ _______ _______ _____ _____    ______ ____
ROOT
ATOM     10  C   UNL     1      -5.471  -5.524   0.000  0.00  0.00    +0.124 C 
ENDROOT
BRANCH  10  11
ATOM     11  C   UNL     1      -5.471  -7.024   0.000  0.00  0.00    +0.016 A 
ATOM     12  C   UNL     1      -6.770  -7.774   0.000  0.00  0.00    -0.010 A 
ATOM     13  C   UNL     1      -8.069  -7.024   0.000  0.00  0.00    +0.009 A 
ATOM     14  C   UNL     1      -9.368  -7.775   0.000  0.00  0.00    +0.001 A 
ATOM     15  C   UNL     1      -9.368  -9.275   0.000  0.00  0.00    +0.001 A 
ATOM     16  C   UNL     1      -8.069 -10.025   0.000  0.00  0.00    +0.008 A 
ATOM     17  C   UNL     1      -6.770  -9.274   0.000  0.00  0.00    -0.017 A 
ATOM     18  C   UNL     1      -5.471 -10.025   0.000  0.00  0.00    +0.012 A 
ATOM     19  C   UNL     1      -4.172  -9.274   0.000  0.00  0.00    +0.046 A 
ATOM     20  C   UNL     1      -4.172  -7.774   0.000  0.00  0.00    +0.122 A 
BRANCH  20  21
ATOM     21  O   UNL     1      -2.873  -7.024   0.000  0.00  0.00    -0.506 OA
ATOM     22  H   UNL     1      -2.061  -7.493   0.000  0.00  0.00    +0.292 HD
ENDBRANCH  20  21
ENDBRANCH  10  11
BRANCH  10   9
ATOM      1  N   UNL     1      -1.574  -3.275   0.000  0.00  0.00    -0.265 N 
ATOM      2  C   UNL     1      -0.275  -2.525   0.000  0.00  0.00    +0.403 C 
ATOM      6  O   UNL     1      -0.275  -1.025   0.000  0.00  0.00    -0.226 OA
ATOM      7  C   UNL     1      -2.873  -2.525   0.000  0.00  0.00    +0.126 C 
ATOM      8  C   UNL     1      -4.172  -3.275   0.000  0.00  0.00    +0.104 C 
ATOM      9  N   UNL     1      -4.172  -4.774   0.000  0.00  0.00    -0.295 NA
ATOM     23  C   UNL     1      -2.873  -5.524   0.000  0.00  0.00    +0.104 C 
ATOM     24  C   UNL     1      -1.574  -4.774   0.000  0.00  0.00    +0.126 C 
BRANCH   2   3
ATOM      3  O   UNL     1       1.025  -3.275   0.000  0.00  0.00    -0.451 OA
BRANCH   3   4
ATOM      4  C   UNL     1       1.025  -4.774   0.000  0.00  0.00    +0.230 C 
ATOM      5  C   UNL     1       2.324  -5.524   0.000  0.00  0.00    +0.048 C 
ENDBRANCH   3   4
ENDBRANCH   2   3
ENDBRANCH  10   9
TORSDOF 5