REMARK  Name = 124818
REMARK  2 active torsions:
REMARK  status: ('A' for Active; 'I' for Inactive)
REMARK    1  A    between atoms: N_4  and  N_6
REMARK    2  A    between atoms: C_14  and  C_20
REMARK                            x       y       z     vdW  Elec       q    Type
REMARK                         _______ _______ _______ _____ _____    ______ ____
ROOT
ATOM      1 BR   UNL     1     -11.250  -4.890   0.000  0.00  0.00    -0.050 Br
ATOM      2  C   UNL     1      -9.951  -4.140   0.000  0.00  0.00    +0.019 A 
ATOM      3  C   UNL     1      -8.652  -4.890   0.000  0.00  0.00    +0.026 A 
ATOM      4  C   UNL     1      -7.353  -4.140   0.000  0.00  0.00    +0.009 A 
ATOM      5  C   UNL     1      -5.926  -4.604   0.000  0.00  0.00    +0.020 A 
ATOM     15  C   UNL     1      -5.045  -3.390   0.000  0.00  0.00    +0.093 A 
ATOM     16  N   UNL     1      -5.926  -2.177   0.000  0.00  0.00    -0.360 N 
ATOM     17  H   UNL     1      -5.463  -0.750   0.000  0.00  0.00    +0.165 HD
ATOM     18  C   UNL     1      -7.353  -2.640   0.000  0.00  0.00    +0.047 A 
ATOM     19  C   UNL     1      -8.652  -1.890   0.000  0.00  0.00    +0.027 A 
ATOM     20  C   UNL     1      -9.951  -2.640   0.000  0.00  0.00    +0.017 A 
ENDROOT
BRANCH   5   6
ATOM      6  C   UNL     1      -5.463  -6.030   0.000  0.00  0.00    +0.141 C 
ATOM      7  N   UNL     1      -3.995  -6.342   0.000  0.00  0.00    -0.179 NA
BRANCH   7   8
ATOM      8  N   UNL     1      -3.532  -7.769   0.000  0.00  0.00    -0.146 N 
ATOM      9  C   UNL     1      -4.414  -8.982   0.000  0.00  0.00    +0.251 C 
ATOM     10  C   UNL     1      -3.532 -10.196   0.000  0.00  0.00    +0.174 C 
ATOM     11  S   UNL     1      -2.105  -9.732   0.000  0.00  0.00    -0.091 S 
ATOM     12  O   UNL     1      -5.914  -8.982   0.000  0.00  0.00    -0.273 OA
ATOM     13  C   UNL     1      -2.105  -8.232   0.000  0.00  0.00    +0.138 C 
ATOM     14  S   UNL     1      -0.892  -7.351   0.000  0.00  0.00    -0.026 S 
ENDBRANCH   7   8
ENDBRANCH   5   6
TORSDOF 2