REMARK  Name = 120913
REMARK  4 active torsions:
REMARK  status: ('A' for Active; 'I' for Inactive)
REMARK    1  A    between atoms: C_9  and  C_11
REMARK    2  A    between atoms: C_9  and  C_18
REMARK    3  A    between atoms: C_18  and  C_19
REMARK    4  A    between atoms: C_19  and  C_20
REMARK                            x       y       z     vdW  Elec       q    Type
REMARK                         _______ _______ _______ _____ _____    ______ ____
ROOT
ATOM      1  O   UNL     1      -1.428   3.974   0.000  0.00  0.00    -0.252 OA
ATOM      2  C   UNL     1      -0.129   4.724   0.000  0.00  0.00    +0.312 C 
ATOM      3  N   UNL     1       1.170   3.974   0.000  0.00  0.00    -0.239 N 
ATOM      4  H   UNL     1       1.170   2.474   0.000  0.00  0.00    +0.159 HD
ATOM      5  C   UNL     1       2.469   4.724   0.000  0.00  0.00    +0.240 C 
ATOM      6  C   UNL     1       2.469   6.224   0.000  0.00  0.00    +0.145 C 
ATOM     17  C   UNL     1       1.170   6.974   0.000  0.00  0.00    +0.240 C 
ATOM     18  O   UNL     1       1.170   8.474   0.000  0.00  0.00    -0.274 OA
ATOM     19  O   UNL     1       3.768   3.974   0.000  0.00  0.00    -0.274 OA
ATOM     20  N   UNL     1      -0.129   6.224   0.000  0.00  0.00    -0.239 N 
ATOM     21  H   UNL     1      -1.428   6.974   0.000  0.00  0.00    +0.159 HD
ENDROOT
BRANCH   6  11
ATOM     11  C   UNL     1       3.946   5.963   0.000  0.00  0.00    -0.050 C 
ATOM     12  C   UNL     1       4.910   7.112   0.000  0.00  0.00    +0.032 C 
ATOM     13  C   UNL     1       6.388   6.852   0.000  0.00  0.00    +0.005 C 
ATOM     14  C   UNL     1       6.901   5.442   0.000  0.00  0.00    +0.004 C 
ATOM     15  C   UNL     1       5.936   4.293   0.000  0.00  0.00    +0.027 C 
ATOM     16  C   UNL     1       4.459   4.554   0.000  0.00  0.00    -0.026 C 
ENDBRANCH   6  11
BRANCH   6   7
ATOM      7  C   UNL     1       2.982   7.633   0.000  0.00  0.00    +0.034 C 
BRANCH   7   8
ATOM      8  C   UNL     1       4.459   7.894   0.000  0.00  0.00    +0.028 C 
BRANCH   8   9
ATOM      9  C   UNL     1       4.972   9.303   0.000  0.00  0.00    -0.034 C 
ATOM     10  C   UNL     1       4.008  10.452   0.000  0.00  0.00    +0.004 C 
ENDBRANCH   8   9
ENDBRANCH   7   8
ENDBRANCH   6   7
TORSDOF 4