REMARK  Name = 121868
REMARK  1 active torsions:
REMARK  status: ('A' for Active; 'I' for Inactive)
REMARK    1  A    between atoms: C_26  and  C_32
REMARK                            x       y       z     vdW  Elec       q    Type
REMARK                         _______ _______ _______ _____ _____    ______ ____
ROOT
ATOM      1  O   UNL     1       9.771   4.740   0.000  0.00  0.00    -0.270 OA
ATOM      2  C   UNL     1      10.575   6.012   0.000  0.00  0.00    +0.250 C 
ATOM      3  C   UNL     1      11.925   5.964   0.000  0.00  0.00    +0.044 C 
ATOM      4  C   UNL     1      12.655   4.649   0.000  0.00  0.00    +0.019 C 
ATOM     11  C   UNL     1      12.633   7.197   0.000  0.00  0.00    +0.159 C 
ATOM     12  C   UNL     1      11.983   8.360   0.000  0.00  0.00    +0.051 C 
ATOM     13  C   UNL     1      10.593   8.429   0.000  0.00  0.00    +0.100 C 
ATOM     14  C   UNL     1       9.999   9.526   0.000  0.00  0.00    +0.034 C 
ATOM     15  C   UNL     1       8.440   9.240   0.000  0.00  0.00    -0.016 A 
ATOM     16  C   UNL     1       7.064  10.040   0.000  0.00  0.00    +0.006 A 
ATOM     17  C   UNL     1       5.689   9.240   0.000  0.00  0.00    +0.000 A 
ATOM     18  C   UNL     1       5.689   7.677   0.000  0.00  0.00    +0.002 A 
ATOM     19  C   UNL     1       7.064   6.874   0.000  0.00  0.00    +0.024 A 
ATOM     20  C   UNL     1       8.440   7.677   0.000  0.00  0.00    +0.041 A 
ATOM     21  C   UNL     1       8.642   9.864   0.000  0.00  0.00    +0.030 C 
ATOM     22  C   UNL     1       8.521  11.287   0.000  0.00  0.00    +0.086 C 
ATOM     23  N   UNL     1       9.797  11.811   0.000  0.00  0.00    -0.295 NA
ATOM     24  C   UNL     1      12.684  12.182   0.000  0.00  0.00    +0.115 C 
ATOM     25  C   UNL     1      13.953   9.673   0.000  0.00  0.00    -0.054 C 
ATOM     26  C   UNL     1      14.889   8.921   0.000  0.00  0.00    +0.002 C 
ATOM     27  C   UNL     1      14.885   7.718   0.000  0.00  0.00    +0.188 C 
ATOM     28  C   UNL     1      10.678  10.755   0.000  0.00  0.00    +0.070 C 
ATOM     29  C   UNL     1      12.020  10.711   0.000  0.00  0.00    +0.028 C 
ATOM     30  C   UNL     1      12.713   9.500   0.000  0.00  0.00    +0.025 C 
ATOM     31  O   UNL     1      13.898   6.925   0.000  0.00  0.00    -0.367 OA
ATOM     32  N   UNL     1       9.944   7.226   0.000  0.00  0.00    -0.263 N 
ENDROOT
BRANCH   4   5
ATOM      5  C   UNL     1      11.881   3.358   0.000  0.00  0.00    -0.025 A 
ATOM      6  C   UNL     1      10.377   3.383   0.000  0.00  0.00    +0.008 A 
ATOM      7  C   UNL     1       9.603   2.093   0.000  0.00  0.00    +0.001 A 
ATOM      8  C   UNL     1      10.334   0.777   0.000  0.00  0.00    +0.000 A 
ATOM      9  C   UNL     1      11.838   0.752   0.000  0.00  0.00    +0.001 A 
ATOM     10  C   UNL     1      12.612   2.043   0.000  0.00  0.00    +0.008 A 
ENDBRANCH   4   5
TORSDOF 1