REMARK  Name = 126347
REMARK  4 active torsions:
REMARK  status: ('A' for Active; 'I' for Inactive)
REMARK    1  A    between atoms: N_1  and  S_16
REMARK    2  A    between atoms: C_8  and  S_16
REMARK    3  A    between atoms: C_10  and  S_19
REMARK    4  A    between atoms: S_19  and  C_20
REMARK                            x       y       z     vdW  Elec       q    Type
REMARK                         _______ _______ _______ _____ _____    ______ ____
ROOT
ATOM      5  C   UNL     1      -4.654  -5.285   0.000  0.00  0.00    +0.108 A 
ATOM      6  C   UNL     1      -3.355  -6.035   0.000  0.00  0.00    +0.057 A 
ATOM      7  C   UNL     1      -2.056  -5.285   0.000  0.00  0.00    +0.081 A 
ATOM      8  C   UNL     1      -2.056  -3.785   0.000  0.00  0.00    +0.040 A 
ATOM      9  C   UNL     1      -3.355  -3.035   0.000  0.00  0.00    +0.019 A 
ATOM     10  S   UNL     1      -0.629  -3.322   0.000  0.00  0.00    -0.061 S 
ATOM     11  C   UNL     1       0.252  -4.535   0.000  0.00  0.00    +0.135 A 
ATOM     14  N   UNL     1      -0.629  -5.749   0.000  0.00  0.00    -0.233 NA
ATOM     15  C   UNL     1      -4.654  -3.785   0.000  0.00  0.00    +0.030 A 
ENDROOT
BRANCH   5   2
ATOM      2  S   UNL     1      -5.953  -6.035   0.000  0.00  0.00    +0.061 S 
ATOM      3  O   UNL     1      -5.203  -7.334   0.000  0.00  0.00    -0.153 OA
ATOM      4  O   UNL     1      -6.703  -4.736   0.000  0.00  0.00    -0.153 OA
BRANCH   2   1
ATOM      1  N   UNL     1      -7.252  -6.785   0.000  0.00  0.00    -0.177 NA
ATOM     16  C   UNL     1      -7.252  -8.285   0.000  0.00  0.00    +0.109 C 
ATOM     17  C   UNL     1      -8.551  -9.035   0.000  0.00  0.00    +0.017 C 
ATOM     18  C   UNL     1      -9.850  -8.285   0.000  0.00  0.00    +0.003 C 
ATOM     19  C   UNL     1      -9.850  -6.785   0.000  0.00  0.00    +0.017 C 
ATOM     20  C   UNL     1      -8.551  -6.035   0.000  0.00  0.00    +0.109 C 
ENDBRANCH   2   1
ENDBRANCH   5   2
BRANCH  11  12
ATOM     12  S   UNL     1       1.752  -4.535   0.000  0.00  0.00    -0.102 S 
ATOM     13  C   UNL     1       2.502  -5.834   0.000  0.00  0.00    +0.092 C 
ENDBRANCH  11  12
TORSDOF 3