REMARK  Name = 126224
REMARK  8 active torsions:
REMARK  status: ('A' for Active; 'I' for Inactive)
REMARK    1  A    between atoms: C_1  and  C_12
REMARK    2  A    between atoms: C_1  and  C_14
REMARK    3  A    between atoms: C_3  and  C_8
REMARK    4  A    between atoms: C_5  and  N_9
REMARK    5  A    between atoms: C_12  and  O_16
REMARK    6  A    between atoms: C_14  and  O_18
REMARK    7  A    between atoms: O_16  and  C_17
REMARK    8  A    between atoms: O_18  and  C_19
REMARK                            x       y       z     vdW  Elec       q    Type
REMARK                         _______ _______ _______ _____ _____    ______ ____
ROOT
ATOM      1  C   UNL     1      -2.525  -4.922   0.000  0.00  0.00    +0.143 C 
ATOM     10  C   UNL     1      -4.024  -4.922   0.000  0.00  0.00    +0.036 C 
ENDROOT
BRANCH  10  11
ATOM     11  C   UNL     1      -4.774  -6.221   0.000  0.00  0.00    +0.053 A 
ATOM     12  C   UNL     1      -6.274  -6.221   0.000  0.00  0.00    +0.280 A 
ATOM     16  C   UNL     1      -7.024  -7.520   0.000  0.00  0.00    +0.085 A 
ATOM     17  C   UNL     1      -6.274  -8.819   0.000  0.00  0.00    +0.007 A 
ATOM     18  C   UNL     1      -4.774  -8.819   0.000  0.00  0.00    +0.001 A 
ATOM     19  C   UNL     1      -4.024  -7.520   0.000  0.00  0.00    +0.014 A 
BRANCH  12  13
ATOM     13  N   UNL     1      -7.024  -4.922   0.000  0.00  0.00    +0.080 N 
ATOM     14  O   UNL     1      -8.524  -4.922   0.000  0.00  0.00    +0.041 OA
ATOM     15  O   UNL     1      -6.274  -3.623   0.000  0.00  0.00    -0.576 OA
ENDBRANCH  12  13
ENDBRANCH  10  11
BRANCH   1   2
ATOM      2  C   UNL     1      -1.775  -6.221   0.000  0.00  0.00    +0.346 C 
ATOM      5  O   UNL     1      -2.525  -7.520   0.000  0.00  0.00    -0.245 OA
BRANCH   2   3
ATOM      3  O   UNL     1      -0.275  -6.221   0.000  0.00  0.00    -0.464 OA
ATOM      4  C   UNL     1       0.475  -7.520   0.000  0.00  0.00    +0.280 C 
ENDBRANCH   2   3
ENDBRANCH   1   2
BRANCH   1   6
ATOM      6  C   UNL     1      -1.775  -3.623   0.000  0.00  0.00    +0.346 C 
ATOM      9  O   UNL     1      -2.525  -2.324   0.000  0.00  0.00    -0.245 OA
BRANCH   6   7
ATOM      7  O   UNL     1      -0.275  -3.623   0.000  0.00  0.00    -0.464 OA
ATOM      8  C   UNL     1       0.475  -2.324   0.000  0.00  0.00    +0.280 C 
ENDBRANCH   6   7
ENDBRANCH   1   6
TORSDOF 6