REMARK  Name = 122276
REMARK  0 active torsions:
REMARK  status: ('A' for Active; 'I' for Inactive)
REMARK                            x       y       z     vdW  Elec       q    Type
REMARK                         _______ _______ _______ _____ _____    ______ ____
ROOT
ATOM      1  C   UNL     1       1.674   1.400   0.000  0.00  0.00    +0.023 A 
ATOM      2  C   UNL     1       1.674  -0.101   0.000  0.00  0.00    +0.113 A 
ATOM      3  N   UNL     1       2.973  -0.851   0.000  0.00  0.00    -0.237 NA
ATOM      4  C   UNL     1       4.272  -0.101   0.000  0.00  0.00    +0.167 A 
ATOM      5  N   UNL     1       5.571  -0.851   0.000  0.00  0.00    -0.265 N 
ATOM      6  H   UNL     1       5.571  -2.350   0.000  0.00  0.00    +0.156 HD
ATOM      7  C   UNL     1       6.870  -0.101   0.000  0.00  0.00    +0.256 C 
ATOM      8  O   UNL     1       8.169  -0.851   0.000  0.00  0.00    -0.272 OA
ATOM      9  C   UNL     1       6.870   1.400   0.000  0.00  0.00    +0.325 C 
ATOM     10  O   UNL     1       5.571   2.150   0.000  0.00  0.00    -0.479 OA
ATOM     11  C   UNL     1       4.272   1.400   0.000  0.00  0.00    +0.161 A 
ATOM     12  C   UNL     1       2.973   2.150   0.000  0.00  0.00    +0.051 A 
ENDROOT
TORSDOF 0