REMARK  Name = 120844
REMARK  9 active torsions:
REMARK  status: ('A' for Active; 'I' for Inactive)
REMARK    1  A    between atoms: N_2  and  C_8
REMARK    2  A    between atoms: N_3  and  C_12
REMARK    3  A    between atoms: C_6  and  C_7
REMARK    4  A    between atoms: C_8  and  C_9
REMARK    5  A    between atoms: C_8  and  C_10
REMARK    6  A    between atoms: C_9  and  C_11
REMARK    7  A    between atoms: C_12  and  C_13
REMARK    8  A    between atoms: C_12  and  C_14
REMARK    9  A    between atoms: C_13  and  C_15
REMARK                            x       y       z     vdW  Elec       q    Type
REMARK                         _______ _______ _______ _____ _____    ______ ____
ROOT
ATOM      1  O   UNL     1       2.195   8.226   0.000  0.00  0.00    -0.266 OA
ATOM      2  C   UNL     1       2.195   6.726   0.000  0.00  0.00    +0.268 A 
ATOM      3  C   UNL     1       0.981   5.844   0.000  0.00  0.00    +0.094 A 
ATOM      4  C   UNL     1       1.444   4.417   0.000  0.00  0.00    +0.038 A 
ATOM      5  C   UNL     1       0.563   3.204   0.000  0.00  0.00    +0.065 C 
ATOM      6  N   UNL     1       2.945   4.417   0.000  0.00  0.00    -0.283 N 
ATOM     11  N   UNL     1       3.408   5.844   0.000  0.00  0.00    -0.247 N 
ENDROOT
BRANCH   6   7
ATOM      7  C   UNL     1       3.826   3.204   0.000  0.00  0.00    +0.102 C 
ATOM      8  C   UNL     1       5.318   3.361   0.000  0.00  0.00    +0.032 C 
BRANCH   7   9
ATOM      9  C   UNL     1       3.216   1.834   0.000  0.00  0.00    +0.023 C 
ATOM     10  C   UNL     1       1.724   1.677   0.000  0.00  0.00    +0.006 C 
ENDBRANCH   7   9
ENDBRANCH   6   7
BRANCH  11  12
ATOM     12  C   UNL     1       4.835   6.308   0.000  0.00  0.00    +0.106 C 
ATOM     13  C   UNL     1       5.146   7.775   0.000  0.00  0.00    +0.032 C 
BRANCH  12  14
ATOM     14  C   UNL     1       5.949   5.304   0.000  0.00  0.00    +0.023 C 
ATOM     15  C   UNL     1       7.376   5.767   0.000  0.00  0.00    +0.006 C 
ENDBRANCH  12  14
ENDBRANCH  11  12
TORSDOF 4