REMARK  Name = 12488
REMARK  3 active torsions:
REMARK  status: ('A' for Active; 'I' for Inactive)
REMARK    1  A    between atoms: C_8  and  N_18
REMARK    2  A    between atoms: C_12  and  N_18
REMARK    3  A    between atoms: C_17  and  O_19
REMARK                            x       y       z     vdW  Elec       q    Type
REMARK                         _______ _______ _______ _____ _____    ______ ____
ROOT
ATOM      1 CL   UNL     1      -3.481   5.226   0.000  0.00  0.00    -0.083 Cl
ATOM      2  C   UNL     1      -2.609   4.006   0.000  0.00  0.00    +0.043 A 
ATOM      3  C   UNL     1      -3.230   2.641   0.000  0.00  0.00    +0.021 A 
ATOM      4  C   UNL     1      -2.358   1.420   0.000  0.00  0.00    +0.013 A 
ATOM      5  C   UNL     1      -0.866   1.565   0.000  0.00  0.00    +0.022 A 
ATOM      6  C   UNL     1       0.006   0.344   0.000  0.00  0.00    +0.042 A 
ATOM     17  C   UNL     1       1.499   0.489   0.000  0.00  0.00    +0.043 A 
ATOM     18  C   UNL     1       2.120   1.854   0.000  0.00  0.00    +0.113 A 
ATOM     19  N   UNL     1       1.249   3.075   0.000  0.00  0.00    -0.255 NA
ATOM     20  C   UNL     1      -0.244   2.930   0.000  0.00  0.00    +0.074 A 
ATOM     21  C   UNL     1      -1.116   4.151   0.000  0.00  0.00    +0.048 A 
ENDROOT
BRANCH   6   7
ATOM      7  N   UNL     1      -0.615  -1.021   0.000  0.00  0.00    -0.314 N 
ATOM      8  H   UNL     1      -1.595  -1.116   0.000  0.00  0.00    +0.152 HD
BRANCH   7   9
ATOM      9  C   UNL     1       0.257  -2.242   0.000  0.00  0.00    +0.032 A 
ATOM     10  C   UNL     1      -0.364  -3.607   0.000  0.00  0.00    +0.027 A 
ATOM     11  C   UNL     1       0.508  -4.828   0.000  0.00  0.00    +0.047 A 
ATOM     12  C   UNL     1       2.001  -4.683   0.000  0.00  0.00    +0.117 A 
ATOM     15  C   UNL     1       2.622  -3.318   0.000  0.00  0.00    +0.047 A 
ATOM     16  C   UNL     1       1.750  -2.097   0.000  0.00  0.00    +0.027 A 
BRANCH  12  13
ATOM     13  O   UNL     1       2.873  -5.904   0.000  0.00  0.00    -0.507 OA
ATOM     14  H   UNL     1       2.484  -6.757   0.000  0.00  0.00    +0.292 HD
ENDBRANCH  12  13
ENDBRANCH   7   9
ENDBRANCH   6   7
TORSDOF 3