REMARK  Name = 12646
REMARK  4 active torsions:
REMARK  status: ('A' for Active; 'I' for Inactive)
REMARK    1  A    between atoms: C_2  and  AS_12
REMARK    2  A    between atoms: C_4  and  N_15
REMARK    3  A    between atoms: AS_12  and  O_13
REMARK    4  A    between atoms: AS_12  and  O_14
REMARK                            x       y       z     vdW  Elec       q    Type
REMARK                         _______ _______ _______ _____ _____    ______ ____
ROOT
ATOM      7  C   UNL     1       3.892   0.119   0.000  0.00  0.00    +0.000 A 
ATOM      8  C   UNL     1       3.892  -1.381   0.000  0.00  0.00    +0.000 A 
ATOM      9  C   UNL     1       5.191  -2.131   0.000  0.00  0.00    +0.000 A 
ATOM     10  C   UNL     1       6.490  -1.381   0.000  0.00  0.00    +0.000 A 
ATOM     11  C   UNL     1       7.789  -2.131   0.000  0.00  0.00    +0.000 A 
ATOM     12  C   UNL     1       9.088  -1.381   0.000  0.00  0.00    +0.000 A 
ATOM     13  C   UNL     1       9.088   0.119   0.000  0.00  0.00    +0.000 A 
ATOM     14  C   UNL     1       7.789   0.869   0.000  0.00  0.00    +0.000 A 
ATOM     18  C   UNL     1       6.490   0.119   0.000  0.00  0.00    +0.000 A 
ATOM     19  C   UNL     1       5.191   0.869   0.000  0.00  0.00    +0.000 A 
ENDROOT
BRANCH  14  15
ATOM     15  N   UNL     1       7.789   2.369   0.000  0.00  0.00    +0.000 N 
ATOM     16  H   UNL     1       6.936   2.861   0.000  0.00  0.00    +0.000 HD
ATOM     17  H   UNL     1       8.641   2.861   0.000  0.00  0.00    +0.000 HD
ENDBRANCH  14  15
BRANCH   7   2
ATOM      1  O   UNL     1       1.294   0.119   0.000  0.00  0.00    +0.000 OA
ATOM      2 AS   UNL     1       2.593   0.869   0.000  0.00  0.00    +0.000 As
BRANCH   2   3
ATOM      3  O   UNL     1       2.981   2.318   0.000  0.00  0.00    +0.000 OA
ATOM      4  H   UNL     1       3.918   2.569   0.000  0.00  0.00    +0.000 HD
ENDBRANCH   2   3
BRANCH   2   5
ATOM      5  O   UNL     1       2.204   2.318   0.000  0.00  0.00    +0.000 OA
ATOM      6  H   UNL     1       2.890   3.004   0.000  0.00  0.00    +0.000 HD
ENDBRANCH   2   5
ENDBRANCH   7   2
TORSDOF 4