REMARK  3 active torsions:
REMARK  status: ('A' for Active; 'I' for Inactive)
REMARK    1  A    between atoms: O_1  and  C_11
REMARK    2  A    between atoms: C_6  and  C_10
REMARK    3  A    between atoms: C_7  and  C_8
ROOT
HETATM    1  N   UNK     0      -0.588  -0.296  -0.011  0.00  0.00    -0.352 N
HETATM    2  C   UNK     0      -1.592  -1.236   0.033  0.00  0.00     0.068 A
HETATM    3  C   UNK     0       0.659  -0.874   0.051  0.00  0.00     0.064 A
HETATM    4  C   UNK     0      -2.911  -1.020  -0.005  0.00  0.00     0.062 C
HETATM    5  C   UNK     0      -0.900  -2.512   0.131  0.00  0.00     0.097 A
HETATM    6  C   UNK     0       0.431  -2.310   0.143  0.00  0.00     0.071 A
HETATM    7  H   UNK     0      -0.743   0.698  -0.082  0.00  0.00     0.166 HD
ENDROOT
BRANCH   4   8
HETATM    8  C   UNK     0      -3.565   0.296  -0.106  0.00  0.00     0.040 A
HETATM    9  N   UNK     0      -3.863   0.879   1.063  0.00  0.00    -0.359 N
HETATM   10  C   UNK     0      -4.457   2.079   0.772  0.00  0.00     0.006 A
HETATM   11  H   UNK     0      -3.689   0.520   1.993  0.00  0.00     0.166 HD
HETATM   12  C   UNK     0      -4.511   2.202  -0.599  0.00  0.00     0.033 A
HETATM   13  C   UNK     0      -4.915   2.988   1.839  0.00  0.00     0.068 C
HETATM   14  C   UNK     0      -3.927   1.035  -1.151  0.00  0.00    -0.033 A
HETATM   15  C   UNK     0      -3.773   0.741  -2.591  0.00  0.00     0.050 C
ENDBRANCH   4   8
BRANCH   5  16
HETATM   16  O   UNK     0      -1.530  -3.719   0.199  0.00  0.00    -0.354 OA
HETATM   17  C   UNK     0      -0.597  -4.787   0.288  0.00  0.00     0.210 C
ENDBRANCH   5  16
BRANCH   3  18
HETATM   18  C   UNK     0       1.861  -0.290   0.030  0.00  0.00     0.085 A
HETATM   19  N   UNK     0       2.083   1.070  -0.057  0.00  0.00    -0.246 NA
HETATM   20  C   UNK     0       3.376   1.185  -0.046  0.00  0.00     0.068 A
HETATM   21  C   UNK     0       4.118  -0.084   0.049  0.00  0.00    -0.005 A
HETATM   22  C   UNK     0       4.186   2.422  -0.117  0.00  0.00     0.032 A
HETATM   23  C   UNK     0       3.131  -0.976   0.095  0.00  0.00     0.047 A
HETATM   24  C   UNK     0       5.543  -0.130   0.073  0.00  0.00     0.014 A
HETATM   25  C   UNK     0       6.215   1.030   0.006  0.00  0.00     0.001 A
HETATM   26  C   UNK     0       5.525   2.307  -0.089  0.00  0.00     0.002 A
ENDBRANCH   3  18
TORSDOF 3
