REMARK  13 active torsions:
REMARK  status: ('A' for Active; 'I' for Inactive)
REMARK    1  A    between atoms: N@A_1  and  C13@A_29
REMARK    2  A    between atoms: N1@A_6  and  C18@A_34
REMARK    3  A    between atoms: N2@A_9  and  S@A_61
REMARK       I    between atoms: N2@A_9  and  C24@A_40
REMARK    4  A    between atoms: N3@A_12  and  C28@A_44
REMARK    5  A    between atoms: N3@A_12  and  C31@A_47
REMARK    6  A    between atoms: C4@A_14  and  C13@A_29
REMARK    7  A    between atoms: N4@A_15  and  C27@A_43
REMARK    8  A    between atoms: C5@A_17  and  C7@A_23
REMARK    9  A    between atoms: O6@A_22  and  C20@A_36
REMARK   10  A    between atoms: O6@A_22  and  C37@A_53
REMARK   11  A    between atoms: C21@A_37  and  C24@A_40
REMARK   12  A    between atoms: C25@A_41  and  S@A_61
REMARK   13  A    between atoms: C31@A_47  and  C32@A_48
ROOT
HETATM    1  C18ALBM A 301     -17.034   4.087 -11.204  0.92 26.27     0.058 A
HETATM    2  C19ALBM A 301     -17.731   3.088 -10.527  0.92 22.39     0.042 A
HETATM    3  C20ALBM A 301     -18.142   3.279  -9.225  0.92 21.97     0.106 A
HETATM    4  C21ALBM A 301     -17.889   4.468  -8.544  0.92 22.07     0.081 A
HETATM    5  C22ALBM A 301     -17.198   5.468  -9.228  0.92 22.32     0.008 A
HETATM    6  C23ALBM A 301     -16.776   5.282 -10.535  0.92 27.73     0.017 A
ENDROOT
BRANCH   4   7
HETATM    7  C24ALBM A 301     -18.312   4.712  -7.130  0.92 33.84     0.291 C
HETATM    8  O  ALBM A 301     -19.330   4.208  -6.665  0.92 37.28    -0.264 OA
HETATM    9  N2 ALBM A 301     -17.464   5.463  -6.336  0.92 32.83    -0.118 NA
BRANCH   9  10
HETATM   10  S  ALBM A 301     -17.594   5.521  -4.702  0.92 29.80     0.288 S
HETATM   11  O1 ALBM A 301     -18.968   5.781  -4.394  0.92 33.08    -0.198 OA
HETATM   12  O2 ALBM A 301     -16.583   6.420  -4.236  0.92 31.12    -0.198 OA
BRANCH  10  13
HETATM   13  C25ALBM A 301     -17.198   3.900  -4.137  0.92 29.09     0.107 A
HETATM   14  C26ALBM A 301     -15.875   3.589  -3.871  0.92 23.87     0.038 A
HETATM   15  C27ALBM A 301     -15.555   2.310  -3.475  0.92 21.46     0.144 A
HETATM   16  C28ALBM A 301     -16.544   1.299  -3.321  0.92 26.40     0.098 A
HETATM   17  C29ALBM A 301     -17.861   1.668  -3.597  0.92 26.93     0.021 A
HETATM   18  C30ALBM A 301     -18.194   2.949  -3.998  0.92 31.69     0.015 A
BRANCH  15  19
HETATM   19  N4 ALBM A 301     -14.137   2.054  -3.238  0.92 28.92    -0.112 N
HETATM   20  O4 ALBM A 301     -13.804   0.948  -2.842  0.92 26.15    -0.532 OA
HETATM   21  O5 ALBM A 301     -13.344   2.961  -3.447  0.92 29.31    -0.532 OA
ENDBRANCH  15  19
BRANCH  16  22
HETATM   22  N3 ALBM A 301     -16.239   0.024  -2.919  0.92 28.29    -0.269 NA
BRANCH  22  23
HETATM   23  C31ALBM A 301     -17.219  -1.036  -2.751  0.92 32.46     0.126 C
BRANCH  23  24
HETATM   24  C32ALBM A 301     -16.657  -2.083  -1.806  0.92 34.73     0.029 C
HETATM   25  C33ALBM A 301     -17.633  -3.232  -1.588  0.92 41.95     0.034 C
HETATM   26  C34ALBM A 301     -16.997  -4.282  -0.712  0.92 45.71     0.142 C
HETATM   27  O3 ALBM A 301     -15.793  -4.774  -1.290  0.92 48.92    -0.354 OA
HETATM   28  C35ALBM A 301     -14.842  -3.722  -1.411  0.92 40.83     0.142 C
HETATM   29  C36ALBM A 301     -15.343  -2.641  -2.333  0.92 37.50     0.034 C
ENDBRANCH  23  24
ENDBRANCH  22  23
ENDBRANCH  16  22
ENDBRANCH  10  13
ENDBRANCH   9  10
ENDBRANCH   4   7
BRANCH   3  30
HETATM   30  O6 ALBM A 301     -18.823   2.274  -8.549  0.92 26.59    -0.305 OA
BRANCH  30  31
HETATM   31  C37ALBM A 301     -18.094   1.317  -7.843  0.92 28.46     0.119 A
HETATM   32  C38ALBM A 301     -18.712   0.146  -7.434  0.92 26.89     0.125 A
HETATM   33  N5 ALBM A 301     -18.071  -0.830  -6.777  0.92 26.40    -0.223 NA
HETATM   34  C39ALBM A 301     -16.768  -0.635  -6.514  0.92 28.94     0.163 A
HETATM   35  N6 ALBM A 301     -15.907  -1.486  -5.885  0.92 28.60    -0.225 NA
HETATM   36  C40ALBM A 301     -16.046   0.533  -6.879  0.92 24.39     0.039 A
HETATM   37  C43ALBM A 301     -14.664  -0.896  -5.841  0.92 25.30     0.101 A
HETATM   38  C42ALBM A 301     -14.704   0.329  -6.430  0.92 27.38     0.024 A
HETATM   39  C41ALBM A 301     -16.752   1.524  -7.564  0.92 21.65     0.029 A
ENDBRANCH  30  31
ENDBRANCH   3  30
BRANCH   1  40
HETATM   40  N1 ALBM A 301     -16.596   3.883 -12.509  0.92 31.50    -0.344 N
HETATM   41  C15ALBM A 301     -15.858   4.926 -13.224  0.92 30.80     0.137 C
HETATM   42  C14ALBM A 301     -15.098   4.325 -14.396  0.92 30.84     0.275 C
HETATM   43  N  ALBM A 301     -16.015   3.626 -15.308  0.92 33.73     0.145 N
HETATM   44  C17ALBM A 301     -16.707   2.567 -14.564  0.92 28.72     0.275 C
HETATM   45  C16ALBM A 301     -17.490   3.149 -13.407  0.92 25.42     0.137 C
BRANCH  43  46
HETATM   46  C13ALBM A 301     -15.300   3.065 -16.455  0.92 35.80     0.272 C
BRANCH  46  47
HETATM   47  C4 ALBM A 301     -14.656   4.142 -17.281  0.92 36.06    -0.015 C
HETATM   48  C3 ALBM A 301     -15.495   5.296 -17.758  0.92 38.18     0.024 C
HETATM   49  C2 ALBM A 301     -14.881   5.860 -19.037  0.92 42.69     0.005 C
HETATM   50  C1 ALBM A 301     -13.408   6.251 -18.881  0.92 39.47     0.004 C
HETATM   51  C  ALBM A 301     -12.864   6.781 -20.208  0.92 36.48     0.000 C
HETATM   52  C6 ALBM A 301     -12.622   5.005 -18.462  0.92 32.11     0.026 C
HETATM   53  C44ALBM A 301     -13.266   7.335 -17.813  0.92 39.99     0.000 C
HETATM   54  C5 ALBM A 301     -13.352   4.013 -17.614  0.92 36.15    -0.028 C
BRANCH  54  55
HETATM   55  C7 ALBM A 301     -12.549   2.834 -17.195  0.92 30.44    -0.004 A
HETATM   56  C8 ALBM A 301     -11.808   2.882 -16.022  0.92 30.17     0.001 A
HETATM   57  C9 ALBM A 301     -11.047   1.792 -15.643  0.92 27.82     0.011 A
HETATM   58  C10ALBM A 301     -11.021   0.656 -16.427  0.92 32.88     0.058 A
HETATM   59 CL@AALBM A 301     -10.054  -0.711 -15.949  0.92 43.24    -0.082 Cl
HETATM   60  C11ALBM A 301     -11.760   0.605 -17.592  0.92 34.49     0.011 A
HETATM   61  C12ALBM A 301     -12.524   1.691 -17.980  0.92 33.19     0.001 A
ENDBRANCH  54  55
ENDBRANCH  46  47
ENDBRANCH  43  46
ENDBRANCH   1  40
TORSDOF 13
