REMARK  Name = 233872
REMARK  9 active torsions:
REMARK  status: ('A' for Active; 'I' for Inactive)
REMARK    1  A    between atoms: C_9  and  C_11
REMARK    2  A    between atoms: C_10  and  C_18
REMARK    3  A    between atoms: C_14  and  C_16
REMARK    4  A    between atoms: S_17  and  C_21
REMARK    5  A    between atoms: S_17  and  C_24
REMARK    6  A    between atoms: N_19  and  C_20
REMARK    7  A    between atoms: C_20  and  C_21
REMARK    8  A    between atoms: C_20  and  C_22
REMARK    9  A    between atoms: C_22  and  O_23
REMARK                            x       y       z     vdW  Elec       q    Type
REMARK                         _______ _______ _______ _____ _____    ______ ____
ROOT
ATOM      9  C   UNK A   0       5.946   5.250   0.000  0.00  0.00    +0.020 C 
ATOM     10  C   UNK A   0       7.245   4.500   0.000  0.00  0.00    +0.068 C 
ENDROOT
BRANCH   9   8
ATOM      1  H   UNK A   0       0.750   5.250   0.000  0.00  0.00    +0.173 HD
ATOM      2  N   UNK A   0       2.049   4.500   0.000  0.00  0.00    -0.275 N 
ATOM      3  C   UNK A   0       2.049   3.000   0.000  0.00  0.00    +0.327 A 
ATOM      4  N   UNK A   0       3.348   2.250   0.000  0.00  0.00    -0.311 N 
ATOM      5  H   UNK A   0       3.348   0.750   0.000  0.00  0.00    +0.170 HD
ATOM      6  C   UNK A   0       4.647   3.000   0.000  0.00  0.00    +0.030 A 
ATOM      7  C   UNK A   0       5.946   2.250   0.000  0.00  0.00    +0.064 C 
ATOM      8  C   UNK A   0       4.647   4.500   0.000  0.00  0.00    +0.059 A 
ATOM     22  O   UNK A   0       0.750   2.250   0.000  0.00  0.00    -0.247 OA
ATOM     23  C   UNK A   0       3.348   5.250   0.000  0.00  0.00    +0.261 A 
ATOM     24  O   UNK A   0       3.348   6.750   0.000  0.00  0.00    -0.267 OA
ENDBRANCH   9   8
BRANCH  10  11
ATOM     11  C   UNK A   0       8.544   5.250   0.000  0.00  0.00    +0.237 C 
ATOM     12  N   UNK A   1       9.843   4.500   0.000  0.00  0.00    -0.306 N 
ATOM     13  H   UNK A   1       9.843   3.516   0.000  0.00  0.00    +0.149 HD
ATOM     21  O   UNK A   0       8.544   6.750   0.000  0.00  0.00    -0.271 OA
BRANCH  12  14
ATOM     14  C   UNK A   1      11.142   5.250   0.000  0.00  0.00    +0.108 C 
BRANCH  14  15
ATOM     15  C   UNK A   1      11.142   6.750   0.000  0.00  0.00    +0.178 C 
BRANCH  15  16
ATOM     16  O   UNK A   1      12.441   7.500   0.000  0.00  0.00    -0.393 OA
ATOM     17  H   UNK A   1      13.281   7.015   0.000  0.00  0.00    +0.209 HD
ENDBRANCH  15  16
ENDBRANCH  14  15
BRANCH  14  18
ATOM     18  C   UNK A   1      12.441   4.500   0.000  0.00  0.00    +0.093 C 
BRANCH  18  19
ATOM     19  S   UNK A   1      13.740   5.250   0.000  0.00  0.00    -0.162 S 
ATOM     20  C   UNK A   1      13.740   6.750   0.000  0.00  0.00    +0.084 C 
ENDBRANCH  18  19
ENDBRANCH  14  18
ENDBRANCH  12  14
ENDBRANCH  10  11
TORSDOF 7