REMARK  Name = 192965
REMARK  10 active torsions:
REMARK  status: ('A' for Active; 'I' for Inactive)
REMARK    1  A    between atoms: GE_1  and  C_11
REMARK    2  A    between atoms: GE_1  and  C_13
REMARK    3  A    between atoms: N_2  and  C_16
REMARK    4  A    between atoms: C_11  and  C_12
REMARK    5  A    between atoms: C_13  and  C_14
REMARK    6  A    between atoms: C_16  and  C_17
REMARK    7  A    between atoms: C_17  and  C_18
REMARK    8  A    between atoms: C_18  and  N_19
REMARK    9  A    between atoms: N_19  and  C_20
REMARK   10  A    between atoms: N_19  and  C_21
REMARK                            x       y       z     vdW  Elec       q    Type
REMARK                         _______ _______ _______ _____ _____    ______ ____
ROOT
ATOM      1 CL   UNL     1       7.874   5.724   0.000  0.00  0.00    +0.000 Cl
ATOM      2  H   UNL     1       9.204   5.724   0.000  0.00  0.00    +0.000 HD
ENDROOT
TORSDOF 0