REMARK  Name = 224117
REMARK  10 active torsions:
REMARK  status: ('A' for Active; 'I' for Inactive)
REMARK    1  A    between atoms: C_9  and  C_11
REMARK    2  A    between atoms: C_10  and  C_19
REMARK    3  A    between atoms: C_14  and  C_16
REMARK    4  A    between atoms: CA_17  and  N_20
REMARK    5  A    between atoms: CA_17  and  CB_21
REMARK    6  A    between atoms: CA_17  and  C_22
REMARK    7  A    between atoms: CB_21  and  CG_24
REMARK    8  A    between atoms: C_22  and  O_23
REMARK    9  A    between atoms: CG_24  and  CD1_25
REMARK   10  A    between atoms: CG_24  and  CD2_26
REMARK                            x       y       z     vdW  Elec       q    Type
REMARK                         _______ _______ _______ _____ _____    ______ ____
ROOT
ATOM      9  C   UNK A   0       5.946   5.250   0.000  0.00  0.00    +0.020 C 
ATOM     10  C   UNK A   0       7.245   4.500   0.000  0.00  0.00    +0.068 C 
ENDROOT
BRANCH   9   8
ATOM      1  H   UNK A   0       0.750   5.250   0.000  0.00  0.00    +0.173 HD
ATOM      2  N   UNK A   0       2.049   4.500   0.000  0.00  0.00    -0.275 N 
ATOM      3  C   UNK A   0       2.049   3.000   0.000  0.00  0.00    +0.327 A 
ATOM      4  N   UNK A   0       3.348   2.250   0.000  0.00  0.00    -0.311 N 
ATOM      5  H   UNK A   0       3.348   0.750   0.000  0.00  0.00    +0.170 HD
ATOM      6  C   UNK A   0       4.647   3.000   0.000  0.00  0.00    +0.030 A 
ATOM      7  C   UNK A   0       5.946   2.250   0.000  0.00  0.00    +0.064 C 
ATOM      8  C   UNK A   0       4.647   4.500   0.000  0.00  0.00    +0.059 A 
ATOM     23  O   UNK A   0       0.750   2.250   0.000  0.00  0.00    -0.247 OA
ATOM     24  C   UNK A   0       3.348   5.250   0.000  0.00  0.00    +0.261 A 
ATOM     25  O   UNK A   0       3.348   6.750   0.000  0.00  0.00    -0.267 OA
ENDBRANCH   9   8
BRANCH  10  11
ATOM     11  C   UNK A   0       8.544   5.250   0.000  0.00  0.00    +0.237 C 
ATOM     12  N   LEU A   1       9.843   4.500   0.000  0.00  0.00    -0.307 N 
ATOM     13  H   LEU A   1       9.843   3.516   0.000  0.00  0.00    +0.149 HD
ATOM     22  O   UNK A   0       8.544   6.750   0.000  0.00  0.00    -0.271 OA
BRANCH  12  14
ATOM     14  CA  LEU A   1      11.142   5.250   0.000  0.00  0.00    +0.099 C 
BRANCH  14  15
ATOM     15  C   LEU A   1      10.392   6.549   0.000  0.00  0.00    +0.178 C 
BRANCH  15  16
ATOM     16  O   LEU A   1      11.142   7.848   0.000  0.00  0.00    -0.393 OA
ATOM     17  H   LEU A   1      12.112   7.848   0.000  0.00  0.00    +0.209 HD
ENDBRANCH  15  16
ENDBRANCH  14  15
BRANCH  14  18
ATOM     18  CB  LEU A   1      11.892   3.951   0.000  0.00  0.00    +0.027 C 
BRANCH  18  19
ATOM     19  CG  LEU A   1      13.392   3.951   0.000  0.00  0.00    -0.015 C 
ATOM     20  CD2 LEU A   1      14.142   2.652   0.000  0.00  0.00    +0.007 C 
ATOM     21  CD1 LEU A   1      14.142   5.250   0.000  0.00  0.00    +0.007 C 
ENDBRANCH  18  19
ENDBRANCH  14  18
ENDBRANCH  12  14
ENDBRANCH  10  11
TORSDOF 7