REMARK  Name = 243023
REMARK  19 active torsions:
REMARK  status: ('A' for Active; 'I' for Inactive)
REMARK    1  A    between atoms: O_1  and  C_2
REMARK    2  A    between atoms: O_1  and  C_3
REMARK    3  A    between atoms: C_9  and  O_15
REMARK    4  A    between atoms: C_10  and  C_17
REMARK    5  A    between atoms: C_10  and  O_18
REMARK    6  A    between atoms: C_11  and  N_19
REMARK    7  A    between atoms: C_12  and  C_21
REMARK    8  A    between atoms: C_13  and  C_22
REMARK    9  A    between atoms: C_17  and  C_25
REMARK   10  A    between atoms: N_19  and  C_26
REMARK   11  A    between atoms: N_19  and  C_27
REMARK   12  A    between atoms: C_20  and  O_28
REMARK   13  A    between atoms: C_22  and  O_29
REMARK   14  A    between atoms: O_28  and  C_34
REMARK   15  A    between atoms: O_29  and  C_35
REMARK   16  A    between atoms: C_38  and  O_42
REMARK   17  A    between atoms: C_41  and  O_46
REMARK   18  A    between atoms: C_45  and  C_50
REMARK   19  A    between atoms: C_57  and  C_59
REMARK                            x       y       z     vdW  Elec       q    Type
REMARK                         _______ _______ _______ _____ _____    ______ ____
ROOT
ATOM     30  C   UNL     1      -9.843  -8.250   0.000  0.00  0.00    +0.158 C 
ATOM     31  C   UNL     1      -9.843  -9.750   0.000  0.00  0.00    +0.072 C 
ATOM     32  C   UNL     1      -8.544 -10.500   0.000  0.00  0.00    +0.085 C 
ATOM     33  C   UNL     1      -7.245  -9.750   0.000  0.00  0.00    +0.160 C 
ATOM     38  C   UNL     1      -7.245  -8.250   0.000  0.00  0.00    -0.021 A 
ATOM     39  C   UNL     1      -5.946  -7.500   0.000  0.00  0.00    +0.017 A 
ATOM     40  C   UNL     1      -5.946  -6.000   0.000  0.00  0.00    +0.037 A 
ATOM     41  C   UNL     1      -7.245  -5.250   0.000  0.00  0.00    +0.075 A 
ATOM     42  C   UNL     1      -7.245  -3.750   0.000  0.00  0.00    +0.202 C 
ATOM     43  C   UNL     1      -5.946  -3.000   0.000  0.00  0.00    +0.078 A 
ATOM     44  C   UNL     1      -4.647  -3.750   0.000  0.00  0.00    +0.078 A 
ATOM     45  C   UNL     1      -3.348  -3.000   0.000  0.00  0.00    +0.129 A 
ATOM     46  C   UNL     1      -3.348  -1.500   0.000  0.00  0.00    +0.050 A 
ATOM     47  C   UNL     1      -4.647  -0.750   0.000  0.00  0.00    +0.050 A 
ATOM     50  C   UNL     1      -5.946  -1.500   0.000  0.00  0.00    +0.129 A 
ATOM     53  O   UNL     1      -8.544  -3.000   0.000  0.00  0.00    -0.286 OA
ATOM     54  C   UNL     1      -8.544  -6.000   0.000  0.00  0.00    +0.134 A 
ATOM     57  C   UNL     1      -4.647  -5.250   0.000  0.00  0.00    +0.198 C 
ATOM     58  O   UNL     1      -3.348  -6.000   0.000  0.00  0.00    -0.286 OA
ATOM     63  C   UNL     1      -8.544  -7.500   0.000  0.00  0.00    +0.028 A 
ENDROOT
BRANCH  33  34
ATOM     34  C   UNL     1      -5.946 -10.500   0.000  0.00  0.00    +0.317 C 
ATOM     35  O   UNL     1      -5.946 -12.000   0.000  0.00  0.00    -0.250 OA
BRANCH  34  36
ATOM     36  O   UNL     1      -4.647  -9.750   0.000  0.00  0.00    -0.467 OA
ATOM     37  C   UNL     1      -3.348 -10.500   0.000  0.00  0.00    +0.280 C 
ENDBRANCH  34  36
ENDBRANCH  33  34
BRANCH  45  48
ATOM     48  O   UNL     1      -2.049  -3.750   0.000  0.00  0.00    -0.506 OA
ATOM     49  H   UNL     1      -0.750  -3.000   0.000  0.00  0.00    +0.292 HD
ENDBRANCH  45  48
BRANCH  50  51
ATOM     51  O   UNL     1      -7.245  -0.750   0.000  0.00  0.00    -0.506 OA
ATOM     52  H   UNL     1      -8.544  -1.500   0.000  0.00  0.00    +0.292 HD
ENDBRANCH  50  51
BRANCH  54  55
ATOM     55  O   UNL     1      -9.843  -5.250   0.000  0.00  0.00    -0.506 OA
ATOM     56  H   UNL     1     -11.142  -6.000   0.000  0.00  0.00    +0.292 HD
ENDBRANCH  54  55
BRANCH  32  59
ATOM     59  O   UNL     1      -7.580 -11.649   0.000  0.00  0.00    -0.387 OA
ATOM     60  H   UNL     1      -8.093 -13.059   0.000  0.00  0.00    +0.210 HD
ENDBRANCH  32  59
BRANCH  32  61
ATOM     61  C   UNL     1      -9.508 -11.649   0.000  0.00  0.00    +0.032 C 
ATOM     62  C   UNL     1     -10.986 -11.389   0.000  0.00  0.00    +0.007 C 
ENDBRANCH  32  61
BRANCH  30   1
ATOM      1  O   UNL     1     -11.142  -7.500   0.000  0.00  0.00    -0.343 OA
BRANCH   1   2
ATOM      2  C   UNL     1     -12.441  -8.250   0.000  0.00  0.00    +0.253 C 
ATOM      3  O   UNL     1     -13.740  -7.500   0.000  0.00  0.00    -0.346 OA
ATOM      4  C   UNL     1     -15.039  -8.250   0.000  0.00  0.00    +0.149 C 
ATOM      5  C   UNL     1     -15.039  -9.750   0.000  0.00  0.00    +0.167 C 
ATOM     24  C   UNL     1     -13.740 -10.500   0.000  0.00  0.00    +0.092 C 
ATOM     28  C   UNL     1     -16.339  -7.500   0.000  0.00  0.00    +0.041 C 
ATOM     29  C   UNL     1     -12.441  -9.750   0.000  0.00  0.00    +0.083 C 
BRANCH  24  25
ATOM     25  N   UNL     1     -13.740 -12.000   0.000  0.00  0.00    -0.303 NA
ATOM     26  C   UNL     1     -15.039 -12.750   0.000  0.00  0.00    +0.105 C 
ATOM     27  C   UNL     1     -12.441 -12.750   0.000  0.00  0.00    +0.105 C 
ENDBRANCH  24  25
BRANCH   5   6
ATOM      6  O   UNL     1     -16.339 -10.500   0.000  0.00  0.00    -0.344 OA
BRANCH   6   7
ATOM      7  C   UNL     1     -17.637  -9.750   0.000  0.00  0.00    +0.254 C 
ATOM      8  O   UNL     1     -17.637  -8.250   0.000  0.00  0.00    -0.346 OA
ATOM      9  C   UNL     1     -18.936  -7.500   0.000  0.00  0.00    +0.150 C 
ATOM     10  C   UNL     1     -20.236  -8.250   0.000  0.00  0.00    +0.179 C 
ATOM     11  O   UNL     1     -21.535  -7.500   0.000  0.00  0.00    -0.340 OA
ATOM     12  C   UNL     1     -22.834  -8.250   0.000  0.00  0.00    +0.281 C 
ATOM     13  C   UNL     1     -22.834  -9.750   0.000  0.00  0.00    +0.182 C 
ATOM     14  C   UNL     1     -24.133 -10.500   0.000  0.00  0.00    +0.113 C 
ATOM     15  C   UNL     1     -25.432  -9.750   0.000  0.00  0.00    +0.164 C 
ATOM     16  C   UNL     1     -25.432  -8.250   0.000  0.00  0.00    +0.184 C 
ATOM     17  C   UNL     1     -26.731  -7.500   0.000  0.00  0.00    +0.046 C 
ATOM     18  O   UNL     1     -26.731 -10.500   0.000  0.00  0.00    -0.295 OA
ATOM     19  O   UNL     1     -21.535 -10.500   0.000  0.00  0.00    -0.365 OA
ATOM     20  O   UNL     1     -24.133  -7.500   0.000  0.00  0.00    -0.338 OA
ATOM     21  C   UNL     1     -20.236  -9.750   0.000  0.00  0.00    +0.155 C 
ATOM     22  C   UNL     1     -18.936  -6.000   0.000  0.00  0.00    +0.041 C 
ATOM     23  C   UNL     1     -18.936 -10.500   0.000  0.00  0.00    +0.095 C 
ENDBRANCH   6   7
ENDBRANCH   5   6
ENDBRANCH   1   2
ENDBRANCH  30   1
TORSDOF 12