REMARK  Name = 211500
REMARK  7 active torsions:
REMARK  status: ('A' for Active; 'I' for Inactive)
REMARK    1  A    between atoms: C_1  and  C_17
REMARK    2  A    between atoms: C_2  and  C_17
REMARK    3  A    between atoms: C_3  and  C_18
REMARK    4  A    between atoms: C_4  and  C_19
REMARK    5  A    between atoms: C_9  and  C_17
REMARK    6  A    between atoms: C_10  and  O_20
REMARK    7  A    between atoms: C_14  and  O_21
REMARK                            x       y       z     vdW  Elec       q    Type
REMARK                         _______ _______ _______ _____ _____    ______ ____
ROOT
ATOM      3  C   UNL     1      -4.693   2.928   0.000  0.00  0.00    +0.118 A 
ATOM      4  O   UNL     1      -3.382   2.198   0.000  0.00  0.00    -0.427 OA
ATOM      5  C   UNL     1      -2.095   2.968   0.000  0.00  0.00    +0.337 A 
ATOM      6  O   UNL     1      -0.785   2.238   0.000  0.00  0.00    -0.245 OA
ATOM      7  C   UNL     1      -2.119   4.468   0.000  0.00  0.00    +0.096 A 
ATOM      8  C   UNL     1      -3.429   5.197   0.000  0.00  0.00    -0.023 A 
ATOM      9  C   UNL     1      -3.452   6.697   0.000  0.00  0.00    +0.030 C 
ATOM     10  C   UNL     1      -2.165   7.467   0.000  0.00  0.00    +0.161 C 
ATOM     11  O   UNL     1      -0.878   8.237   0.000  0.00  0.00    -0.365 OA
ATOM     12  C   UNL     1      -2.188   8.967   0.000  0.00  0.00    +0.178 C 
ATOM     13  C   UNL     1      -3.499   9.697   0.000  0.00  0.00    +0.163 C 
ATOM     16  C   UNL     1      -4.786   8.927   0.000  0.00  0.00    +0.100 C 
ATOM     17  C   UNL     1      -6.241   9.293   0.000  0.00  0.00    +0.316 C 
ATOM     18  O   UNL     1      -6.970   7.982   0.000  0.00  0.00    -0.458 OA
ATOM     19  C   UNL     1      -6.050   6.657   0.000  0.00  0.00    +0.214 C 
ATOM     20  C   UNL     1      -6.027   5.157   0.000  0.00  0.00    +0.189 C 
ATOM     23  O   UNL     1      -6.836  10.669   0.000  0.00  0.00    -0.250 OA
ATOM     24  C   UNL     1      -5.005  10.411   0.000  0.00  0.00    +0.026 C 
ATOM     25  C   UNL     1      -4.763   7.427   0.000  0.00  0.00    +0.065 C 
ATOM     26  C   UNL     1      -2.142   5.968   0.000  0.00  0.00    +0.019 C 
ATOM     27  C   UNL     1      -4.716   4.428   0.000  0.00  0.00    +0.027 A 
ENDROOT
BRANCH   3   2
ATOM      1  C   UNL     1      -5.957   0.658   0.000  0.00  0.00    +0.015 C 
ATOM      2  C   UNL     1      -5.980   2.158   0.000  0.00  0.00    +0.049 C 
ATOM     28  C   UNL     1      -7.291   2.888   0.000  0.00  0.00    +0.015 C 
ENDBRANCH   3   2
BRANCH  13  14
ATOM     14  O   UNL     1      -3.522  11.197   0.000  0.00  0.00    -0.388 OA
ATOM     15  H   UNL     1      -2.235  11.967   0.000  0.00  0.00    +0.210 HD
ENDBRANCH  13  14
BRANCH  20  21
ATOM     21  O   UNL     1      -7.314   4.387   0.000  0.00  0.00    -0.383 OA
ATOM     22  H   UNL     1      -8.624   5.117   0.000  0.00  0.00    +0.210 HD
ENDBRANCH  20  21
TORSDOF 3