REMARK  Name = 22842
REMARK  2 active torsions:
REMARK  status: ('A' for Active; 'I' for Inactive)
REMARK    1  A    between atoms: C_1  and  O_19
REMARK    2  A    between atoms: C_16  and  O_18
REMARK                            x       y       z     vdW  Elec       q    Type
REMARK                         _______ _______ _______ _____ _____    ______ ____
ROOT
ATOM      1  C   UNL     1       2.973   0.649   0.000  0.00  0.00    +0.120 A 
ATOM      4  C   UNL     1       4.272   1.400   0.000  0.00  0.00    +0.092 A 
ATOM      5  C   UNL     1       5.571   0.649   0.000  0.00  0.00    +0.146 A 
ATOM      6  O   UNL     1       6.870   1.400   0.000  0.00  0.00    -0.421 OA
ATOM      7  C   UNL     1       8.169   0.649   0.000  0.00  0.00    +0.349 A 
ATOM      8  O   UNL     1       9.468   1.400   0.000  0.00  0.00    -0.244 OA
ATOM      9  C   UNL     1       8.169  -0.851   0.000  0.00  0.00    +0.113 A 
ATOM     10  C   UNL     1       9.284  -1.854   0.000  0.00  0.00    +0.035 A 
ATOM     11  C   UNL     1       8.674  -3.224   0.000  0.00  0.00    +0.140 A 
ATOM     12  O   UNL     1       7.182  -3.068   0.000  0.00  0.00    -0.454 OA
ATOM     13  C   UNL     1       9.556  -4.438   0.000  0.00  0.00    +0.092 A 
ATOM     14  C   UNL     1      11.047  -4.281   0.000  0.00  0.00    +0.120 A 
ATOM     17  C   UNL     1      11.657  -2.911   0.000  0.00  0.00    +0.046 A 
ATOM     18  C   UNL     1      10.776  -1.697   0.000  0.00  0.00    +0.016 A 
ATOM     19  C   UNL     1       6.870  -1.601   0.000  0.00  0.00    +0.154 A 
ATOM     20  C   UNL     1       5.571  -0.851   0.000  0.00  0.00    +0.061 A 
ATOM     21  C   UNL     1       4.272  -1.601   0.000  0.00  0.00    +0.019 A 
ATOM     22  C   UNL     1       2.973  -0.851   0.000  0.00  0.00    +0.046 A 
ENDROOT
BRANCH   1   2
ATOM      2  O   UNL     1       1.674   1.400   0.000  0.00  0.00    -0.507 OA
ATOM      3  H   UNL     1       1.674   2.336   0.000  0.00  0.00    +0.292 HD
ENDBRANCH   1   2
BRANCH  14  15
ATOM     15  O   UNL     1      11.929  -5.495   0.000  0.00  0.00    -0.507 OA
ATOM     16  H   UNL     1      11.548  -6.351   0.000  0.00  0.00    +0.292 HD
ENDBRANCH  14  15
TORSDOF 2