REMARK  Name = 239375
REMARK  16 active torsions:
REMARK  status: ('A' for Active; 'I' for Inactive)
REMARK    1  A    between atoms: C_2  and  O_3
REMARK    2  A    between atoms: C_2  and  C_44
REMARK    3  A    between atoms: O_3  and  C_5
REMARK    4  A    between atoms: O_4  and  C_6
REMARK    5  A    between atoms: O_4  and  C_45
REMARK    6  A    between atoms: C_8  and  C_47
REMARK    7  A    between atoms: C_9  and  C_46
REMARK    8  A    between atoms: C_12  and  O_49
REMARK    9  A    between atoms: C_14  and  C_50
REMARK   10  A    between atoms: C_15  and  C_48
REMARK   11  A    between atoms: C_17  and  O_51
REMARK   12  A    between atoms: C_20  and  C_52
REMARK   13  A    between atoms: C_24  and  O_25
REMARK   14  A    between atoms: O_25  and  C_30
REMARK   15  A    between atoms: C_34  and  C_53
REMARK   16  A    between atoms: C_42  and  C_54
REMARK                            x       y       z     vdW  Elec       q    Type
REMARK                         _______ _______ _______ _____ _____    ______ ____
ROOT
ATOM      5  C   UNL     1      -3.470   4.511   0.000  0.00  0.00    +0.187 C 
ATOM      6  C   UNL     1      -4.072   3.138   0.000  0.00  0.00    +0.060 C 
ATOM      7  C   UNL     1      -5.513   3.555   0.000  0.00  0.00    +0.014 C 
ATOM      8  C   UNL     1      -4.298   1.655   0.000  0.00  0.00    +0.150 C 
ATOM      9  C   UNL     1      -3.752   0.258   0.000  0.00  0.00    +0.042 C 
ATOM     10  C   UNL     1      -3.587  -1.233   0.000  0.00  0.00    +0.190 C 
ATOM     11  O   UNL     1      -2.698  -2.442   0.000  0.00  0.00    -0.453 OA
ATOM     12  C   UNL     1      -1.527  -3.379   0.000  0.00  0.00    +0.314 C 
ATOM     13  C   UNL     1      -0.750  -2.095   0.000  0.00  0.00    +0.114 C 
ATOM     14  C   UNL     1      -0.153  -3.981   0.000  0.00  0.00    +0.250 C 
ATOM     15  O   UNL     1      -0.570  -5.421   0.000  0.00  0.00    -0.284 OA
ATOM     16  C   UNL     1       1.330  -4.206   0.000  0.00  0.00    +0.079 A 
ATOM     17  C   UNL     1       2.821  -4.041   0.000  0.00  0.00    +0.050 A 
ATOM     18  C   UNL     1       4.218  -3.495   0.000  0.00  0.00    +0.190 C 
ATOM     19  O   UNL     1       4.942  -4.809   0.000  0.00  0.00    -0.287 OA
ATOM     20  C   UNL     1       5.426  -2.606   0.000  0.00  0.00    +0.078 C 
ATOM     21  C   UNL     1       6.364  -1.435   0.000  0.00  0.00    +0.085 C 
ATOM     22  N   UNL     1       6.965  -0.061   0.000  0.00  0.00    -0.279 N 
ATOM     23  C   UNL     1       7.191   1.422   0.000  0.00  0.00    +0.244 C 
ATOM     24  O   UNL     1       8.691   1.392   0.000  0.00  0.00    -0.270 OA
ATOM     25  C   UNL     1       7.026   2.913   0.000  0.00  0.00    +0.012 C 
ATOM     26  C   UNL     1       8.482   3.272   0.000  0.00  0.00    +0.049 C 
ATOM     27  C   UNL     1       6.480   4.310   0.000  0.00  0.00    +0.008 C 
ATOM     28  C   UNL     1       5.591   5.518   0.000  0.00  0.00    -0.003 C 
ATOM     29  C   UNL     1       4.217   6.120   0.000  0.00  0.00    -0.020 C 
ATOM     30  C   UNL     1       3.046   7.057   0.000  0.00  0.00    +0.050 C 
ATOM     31  C   UNL     1       3.463   8.498   0.000  0.00  0.00    +0.015 C 
ATOM     32  C   UNL     1       1.563   7.283   0.000  0.00  0.00    +0.188 C 
ATOM     36  C   UNL     1       0.072   7.117   0.000  0.00  0.00    +0.056 C 
ATOM     37  C   UNL     1      -0.287   8.574   0.000  0.00  0.00    +0.014 C 
ATOM     38  C   UNL     1      -1.325   6.572   0.000  0.00  0.00    +0.127 C 
ATOM     41  H   UNL     1       8.406  -0.478   0.000  0.00  0.00    +0.155 HD
ATOM     42  C   UNL     1       5.197  -5.049   0.000  0.00  0.00    +0.211 C 
ATOM     43  O   UNL     1       6.159  -6.200   0.000  0.00  0.00    -0.285 OA
ATOM     44  C   UNL     1       3.710  -5.249   0.000  0.00  0.00    +0.077 A 
ATOM     45  C   UNL     1       3.108  -6.623   0.000  0.00  0.00    +0.135 A 
ATOM     48  C   UNL     1       1.617  -6.789   0.000  0.00  0.00    +0.034 A 
ATOM     49  C   UNL     1       1.015  -8.162   0.000  0.00  0.00    +0.051 C 
ATOM     50  C   UNL     1       0.728  -5.580   0.000  0.00  0.00    +0.144 A 
ATOM     51  O   UNL     1      -1.509  -4.878   0.000  0.00  0.00    -0.444 OA
ATOM     54  C   UNL     1      -2.533   5.683   0.000  0.00  0.00    +0.056 C 
ATOM     55  C   UNL     1      -3.572   6.765   0.000  0.00  0.00    +0.014 C 
ENDROOT
BRANCH  38  39
ATOM     39  O   UNL     1      -2.049   7.886   0.000  0.00  0.00    -0.391 OA
ATOM     40  H   UNL     1      -1.547   8.716   0.000  0.00  0.00    +0.210 HD
ENDBRANCH  38  39
BRANCH  45  46
ATOM     46  O   UNL     1       3.997  -7.831   0.000  0.00  0.00    -0.506 OA
ATOM     47  H   UNL     1       3.621  -8.689   0.000  0.00  0.00    +0.292 HD
ENDBRANCH  45  46
BRANCH   8  52
ATOM     52  O   UNL     1      -5.798   1.685   0.000  0.00  0.00    -0.375 OA
ATOM     53  C   UNL     1      -6.574   0.401   0.000  0.00  0.00    +0.194 C 
ENDBRANCH   8  52
BRANCH   5   4
ATOM      4  O   UNL     1      -4.754   5.288   0.000  0.00  0.00    -0.461 OA
BRANCH   4   2
ATOM      1  O   UNL     1      -6.383   7.311   0.000  0.00  0.00    -0.251 OA
ATOM      2  C   UNL     1      -4.985   6.770   0.000  0.00  0.00    +0.304 C 
ATOM      3  C   UNL     1      -3.816   7.710   0.000  0.00  0.00    +0.136 C 
ENDBRANCH   4   2
ENDBRANCH   5   4
BRANCH  32  33
ATOM     33  O   UNL     1       1.613   9.758   0.000  0.00  0.00    -0.463 OA
BRANCH  33  34
ATOM     34  C   UNL     1       2.927  10.481   0.000  0.00  0.00    +0.446 C 
ATOM     35  O   UNL     1       2.957  11.981   0.000  0.00  0.00    -0.255 OA
ENDBRANCH  33  34
ENDBRANCH  32  33
TORSDOF 7