REMARK  Name = 241906
REMARK  11 active torsions:
REMARK  status: ('A' for Active; 'I' for Inactive)
REMARK    1  A    between atoms: C_3  and  O_14
REMARK    2  A    between atoms: C_5  and  C_15
REMARK    3  A    between atoms: C_7  and  C_15
REMARK    4  A    between atoms: C_8  and  O_16
REMARK    5  A    between atoms: C_9  and  O_17
REMARK    6  A    between atoms: C_11  and  C_18
REMARK    7  A    between atoms: C_12  and  O_13
REMARK    8  A    between atoms: O_13  and  C_20
REMARK    9  A    between atoms: C_18  and  C_21
REMARK   10  A    between atoms: C_21  and  C_22
REMARK   11  A    between atoms: C_22  and  C_23
REMARK                            x       y       z     vdW  Elec       q    Type
REMARK                         _______ _______ _______ _____ _____    ______ ____
ROOT
ATOM      7  C   UNL     1       7.520   1.025   0.000  0.00  0.00    +0.041 A 
ATOM      8  C   UNL     1       8.819   0.275   0.000  0.00  0.00    +0.138 A 
ATOM     11  C   UNL     1      10.118   1.025   0.000  0.00  0.00    +0.101 A 
ATOM     22  C   UNL     1      10.118   2.525   0.000  0.00  0.00    +0.138 A 
ATOM     25  C   UNL     1       8.819   3.275   0.000  0.00  0.00    +0.092 A 
ATOM     26  C   UNL     1       7.520   2.525   0.000  0.00  0.00    +0.127 A 
ENDROOT
BRANCH   8   9
ATOM      9  O   UNL     1       8.819  -1.225   0.000  0.00  0.00    -0.506 OA
ATOM     10  H   UNL     1       8.007  -1.694   0.000  0.00  0.00    +0.292 HD
ENDBRANCH   8   9
BRANCH  11  12
ATOM     12  C   UNL     1      11.417   0.275   0.000  0.00  0.00    +0.171 C 
ATOM     21  O   UNL     1      12.716   1.025   0.000  0.00  0.00    -0.292 OA
BRANCH  12  13
ATOM     13  C   UNL     1      11.417  -1.225   0.000  0.00  0.00    +0.084 C 
BRANCH  13  14
ATOM     14  C   UNL     1      12.716  -1.975   0.000  0.00  0.00    +0.043 C 
BRANCH  14  15
ATOM     15  C   UNL     1      12.716  -3.475   0.000  0.00  0.00    -0.047 A 
ATOM     16  C   UNL     1      11.417  -4.225   0.000  0.00  0.00    +0.003 A 
ATOM     17  C   UNL     1      11.417  -5.725   0.000  0.00  0.00    +0.000 A 
ATOM     18  C   UNL     1      12.716  -6.475   0.000  0.00  0.00    +0.000 A 
ATOM     19  C   UNL     1      14.015  -5.725   0.000  0.00  0.00    +0.000 A 
ATOM     20  C   UNL     1      14.015  -4.225   0.000  0.00  0.00    +0.003 A 
ENDBRANCH  14  15
ENDBRANCH  13  14
ENDBRANCH  12  13
ENDBRANCH  11  12
BRANCH  22  23
ATOM     23  O   UNL     1      11.417   3.275   0.000  0.00  0.00    -0.494 OA
ATOM     24  C   UNL     1      12.716   2.525   0.000  0.00  0.00    +0.277 C 
ENDBRANCH  22  23
BRANCH  26  27
ATOM     27  O   UNL     1       6.221   3.275   0.000  0.00  0.00    -0.506 OA
ATOM     28  H   UNL     1       6.221   4.212   0.000  0.00  0.00    +0.292 HD
ENDBRANCH  26  27
BRANCH   7   6
ATOM      6  C   UNL     1       6.221   0.275   0.000  0.00  0.00    +0.081 C 
BRANCH   6   5
ATOM      1  C   UNL     1       2.513   1.690   0.000  0.00  0.00    +0.046 A 
ATOM      2  C   UNL     1       2.773   3.167   0.000  0.00  0.00    +0.004 A 
ATOM      3  C   UNL     1       4.183   3.680   0.000  0.00  0.00    +0.001 A 
ATOM      4  C   UNL     1       5.332   2.716   0.000  0.00  0.00    +0.007 A 
ATOM      5  C   UNL     1       5.072   1.239   0.000  0.00  0.00    -0.001 A 
ATOM     29  C   UNL     1       3.662   0.726   0.000  0.00  0.00    +0.120 A 
BRANCH  29  30
ATOM     30  O   UNL     1       3.402  -0.751   0.000  0.00  0.00    -0.506 OA
ATOM     31  H   UNL     1       2.521  -1.072   0.000  0.00  0.00    +0.292 HD
ENDBRANCH  29  30
ENDBRANCH   6   5
ENDBRANCH   7   6
TORSDOF 10