REMARK  Name = 219734
REMARK  11 active torsions:
REMARK  status: ('A' for Active; 'I' for Inactive)
REMARK    1  A    between atoms: C_9  and  N_29
REMARK    2  A    between atoms: C_16  and  N_30
REMARK    3  A    between atoms: N_29  and  C_31
REMARK    4  A    between atoms: N_30  and  C_35
REMARK    5  A    between atoms: C_31  and  C_38
REMARK    6  A    between atoms: C_32  and  C_37
REMARK    7  A    between atoms: C_32  and  C_38
REMARK    8  A    between atoms: C_33  and  C_36
REMARK    9  A    between atoms: C_33  and  C_37
REMARK   10  A    between atoms: C_34  and  C_35
REMARK   11  A    between atoms: C_34  and  C_36
REMARK                            x       y       z     vdW  Elec       q    Type
REMARK                         _______ _______ _______ _____ _____    ______ ____
ROOT
ATOM     14  C   UNL     1      -5.946  -7.500   0.000  0.00  0.00    +0.000 C 
ENDROOT
BRANCH  14  13
ATOM     13  C   UNL     1      -7.245  -8.250   0.000  0.00  0.00    +0.002 C 
BRANCH  13  12
ATOM     12  C   UNL     1      -8.544  -7.500   0.000  0.00  0.00    +0.019 C 
BRANCH  12  11
ATOM     11  C   UNL     1      -9.843  -8.250   0.000  0.00  0.00    +0.101 C 
BRANCH  11   9
ATOM      9  N   UNL     1     -11.142  -7.500   0.000  0.00  0.00    -0.343 N 
ATOM     10  H   UNL     1     -11.995  -7.992   0.000  0.00  0.00    +0.146 HD
BRANCH   9   8
ATOM      1  N   UNL     1     -11.142  -3.000   0.000  0.00  0.00    -0.247 NA
ATOM      2  C   UNL     1      -9.843  -3.750   0.000  0.00  0.00    +0.073 A 
ATOM      3  C   UNL     1      -8.544  -3.000   0.000  0.00  0.00    +0.028 A 
ATOM      4  C   UNL     1      -7.245  -3.750   0.000  0.00  0.00    +0.002 A 
ATOM      5  C   UNL     1      -7.245  -5.250   0.000  0.00  0.00    +0.001 A 
ATOM      6  C   UNL     1      -8.544  -6.000   0.000  0.00  0.00    +0.012 A 
ATOM      7  C   UNL     1      -9.843  -5.250   0.000  0.00  0.00    +0.022 A 
ATOM      8  C   UNL     1     -11.142  -6.000   0.000  0.00  0.00    +0.046 A 
ATOM     35  C   UNL     1     -12.441  -5.250   0.000  0.00  0.00    +0.022 A 
ATOM     36  C   UNL     1     -13.740  -6.000   0.000  0.00  0.00    +0.012 A 
ATOM     37  C   UNL     1     -15.039  -5.250   0.000  0.00  0.00    +0.001 A 
ATOM     38  C   UNL     1     -15.039  -3.750   0.000  0.00  0.00    +0.002 A 
ATOM     39  C   UNL     1     -13.740  -3.000   0.000  0.00  0.00    +0.028 A 
ATOM     40  C   UNL     1     -12.441  -3.750   0.000  0.00  0.00    +0.073 A 
ENDBRANCH   9   8
ENDBRANCH  11   9
ENDBRANCH  12  11
ENDBRANCH  13  12
ENDBRANCH  14  13
BRANCH  14  15
ATOM     15  C   UNL     1      -4.647  -8.250   0.000  0.00  0.00    +0.000 C 
BRANCH  15  16
ATOM     16  C   UNL     1      -3.348  -7.500   0.000  0.00  0.00    +0.002 C 
BRANCH  16  17
ATOM     17  C   UNL     1      -2.049  -8.250   0.000  0.00  0.00    +0.019 C 
BRANCH  17  18
ATOM     18  C   UNL     1      -0.750  -7.500   0.000  0.00  0.00    +0.101 C 
BRANCH  18  19
ATOM     19  N   UNL     1      -1.011  -6.023   0.000  0.00  0.00    -0.343 N 
ATOM     20  H   UNL     1      -1.936  -5.686   0.000  0.00  0.00    +0.146 HD
BRANCH  19  21
ATOM     21  C   UNL     1       0.139  -5.059   0.000  0.00  0.00    +0.046 A 
ATOM     22  C   UNL     1       1.548  -5.572   0.000  0.00  0.00    +0.022 A 
ATOM     23  C   UNL     1       1.809  -7.049   0.000  0.00  0.00    +0.012 A 
ATOM     24  C   UNL     1       3.218  -7.562   0.000  0.00  0.00    +0.001 A 
ATOM     25  C   UNL     1       4.367  -6.598   0.000  0.00  0.00    +0.002 A 
ATOM     26  C   UNL     1       4.107  -5.120   0.000  0.00  0.00    +0.028 A 
ATOM     27  C   UNL     1       2.697  -4.607   0.000  0.00  0.00    +0.073 A 
ATOM     28  N   UNL     1       2.437  -3.130   0.000  0.00  0.00    -0.247 NA
ATOM     29  C   UNL     1       1.027  -2.617   0.000  0.00  0.00    +0.073 A 
ATOM     30  C   UNL     1       0.767  -1.140   0.000  0.00  0.00    +0.028 A 
ATOM     31  C   UNL     1      -0.643  -0.627   0.000  0.00  0.00    +0.002 A 
ATOM     32  C   UNL     1      -1.792  -1.591   0.000  0.00  0.00    +0.001 A 
ATOM     33  C   UNL     1      -1.531  -3.068   0.000  0.00  0.00    +0.012 A 
ATOM     34  C   UNL     1      -0.122  -3.581   0.000  0.00  0.00    +0.022 A 
ENDBRANCH  19  21
ENDBRANCH  18  19
ENDBRANCH  17  18
ENDBRANCH  16  17
ENDBRANCH  15  16
ENDBRANCH  14  15
TORSDOF 11