REMARK  Name = 202000
REMARK  2 active torsions:
REMARK  status: ('A' for Active; 'I' for Inactive)
REMARK    1  A    between atoms: C_10  and  C_11
REMARK    2  A    between atoms: C_14  and  C_20
REMARK                            x       y       z     vdW  Elec       q    Type
REMARK                         _______ _______ _______ _____ _____    ______ ____
ROOT
ATOM      1  O   UNL     1      -4.961  -3.731   0.000  0.00  0.00    -0.243 OA
ATOM      2  C   UNL     1      -3.847  -4.734   0.000  0.00  0.00    +0.364 C 
ATOM      3  C   UNL     1      -4.003  -6.226   0.000  0.00  0.00    +0.152 C 
ATOM      4  C   UNL     1      -5.303  -6.976   0.000  0.00  0.00    +0.043 C 
ATOM     13  N   UNL     1      -2.633  -6.836   0.000  0.00  0.00    -0.203 NA
ATOM     14  C   UNL     1      -1.629  -5.721   0.000  0.00  0.00    +0.267 C 
ATOM     20  O   UNL     1      -2.379  -4.422   0.000  0.00  0.00    -0.399 OA
ENDROOT
BRANCH   4   5
ATOM      5  C   UNL     1      -5.303  -8.476   0.000  0.00  0.00    -0.021 A 
ATOM      6  C   UNL     1      -6.601  -9.226   0.000  0.00  0.00    +0.009 A 
ATOM      7  C   UNL     1      -6.601 -10.726   0.000  0.00  0.00    +0.022 A 
ATOM      8  C   UNL     1      -5.303 -11.476   0.000  0.00  0.00    +0.059 A 
ATOM      9  C   UNL     1      -4.003 -10.726   0.000  0.00  0.00    +0.060 A 
ATOM     10 CL   UNL     1      -2.704 -11.476   0.000  0.00  0.00    -0.082 Cl
ATOM     11 CL   UNL     1      -5.303 -12.976   0.000  0.00  0.00    -0.082 Cl
ATOM     12  C   UNL     1      -4.003  -9.226   0.000  0.00  0.00    +0.029 A 
ENDBRANCH   4   5
BRANCH  14  15
ATOM     15  C   UNL     1      -0.138  -5.878   0.000  0.00  0.00    +0.189 A 
ATOM     16  C   UNL     1       0.612  -7.177   0.000  0.00  0.00    +0.055 A 
ATOM     17  C   UNL     1       2.080  -6.865   0.000  0.00  0.00    +0.042 A 
ATOM     18  C   UNL     1       2.236  -5.373   0.000  0.00  0.00    +0.196 A 
ATOM     19  O   UNL     1       0.866  -4.763   0.000  0.00  0.00    -0.458 OA
ENDBRANCH  14  15
TORSDOF 2