REMARK  Name = 20514
REMARK  10 active torsions:
REMARK  status: ('A' for Active; 'I' for Inactive)
REMARK    1  A    between atoms: N_1  and  C_17
REMARK    2  A    between atoms: N_2  and  C_24
REMARK    3  A    between atoms: C_4  and  O_25
REMARK    4  A    between atoms: C_6  and  C_24
REMARK    5  A    between atoms: C_12  and  C_23
REMARK    6  A    between atoms: C_18  and  C_19
REMARK    7  A    between atoms: C_19  and  C_20
REMARK    8  A    between atoms: C_20  and  C_21
REMARK    9  A    between atoms: C_21  and  O_22
REMARK   10  A    between atoms: O_22  and  C_23
REMARK                            x       y       z     vdW  Elec       q    Type
REMARK                         _______ _______ _______ _____ _____    ______ ____
ROOT
ATOM      7  C   UNL     1      -5.471 -10.025   0.000  0.00  0.00    +0.010 A 
ATOM      8  C   UNL     1      -4.172  -9.274   0.000  0.00  0.00    +0.015 A 
ATOM      9  C   UNL     1      -4.172  -7.774   0.000  0.00  0.00    -0.012 A 
ATOM     16  C   UNL     1      -5.471  -7.024   0.000  0.00  0.00    +0.009 A 
ATOM     17  C   UNL     1      -5.471  -5.524   0.000  0.00  0.00    +0.012 A 
ATOM     18  C   UNL     1      -6.770  -4.774   0.000  0.00  0.00    +0.020 A 
ATOM     19  C   UNL     1      -8.069  -5.524   0.000  0.00  0.00    +0.111 A 
ATOM     20  N   UNL     1      -8.069  -7.024   0.000  0.00  0.00    -0.251 NA
ATOM     21  C   UNL     1      -6.770  -7.774   0.000  0.00  0.00    +0.113 A 
ATOM     22  C   UNL     1      -6.770  -9.274   0.000  0.00  0.00    +0.147 A 
ENDROOT
BRANCH  22  23
ATOM     23  O   UNL     1      -8.069 -10.025   0.000  0.00  0.00    -0.504 OA
ATOM     24  H   UNL     1      -8.880  -9.556   0.000  0.00  0.00    +0.292 HD
ENDBRANCH  22  23
BRANCH   7   6
ATOM      6  C   UNL     1      -5.471 -11.525   0.000  0.00  0.00    +0.123 C 
BRANCH   6   5
ATOM      1  N   UNL     1      -9.368 -13.775   0.000  0.00  0.00    -0.303 NA
ATOM      2  C   UNL     1     -10.667 -14.525   0.000  0.00  0.00    +0.105 C 
ATOM      3  C   UNL     1      -8.069 -14.525   0.000  0.00  0.00    +0.099 C 
ATOM      4  C   UNL     1      -6.770 -13.775   0.000  0.00  0.00    +0.100 C 
ATOM      5  N   UNL     1      -6.770 -12.275   0.000  0.00  0.00    -0.296 NA
ATOM     25  C   UNL     1      -8.069 -11.525   0.000  0.00  0.00    +0.100 C 
ATOM     26  C   UNL     1      -9.368 -12.275   0.000  0.00  0.00    +0.099 C 
ENDBRANCH   6   5
ENDBRANCH   7   6
BRANCH   9  10
ATOM     10  C   UNL     1      -2.873  -7.024   0.000  0.00  0.00    +0.195 C 
BRANCH  10  11
ATOM     11  O   UNL     1      -1.573  -7.774   0.000  0.00  0.00    -0.375 OA
BRANCH  11  12
ATOM     12  C   UNL     1      -0.275  -7.024   0.000  0.00  0.00    +0.160 C 
BRANCH  12  13
ATOM     13  C   UNL     1       1.025  -7.774   0.000  0.00  0.00    +0.028 C 
BRANCH  13  14
ATOM     14  C   UNL     1       2.324  -7.024   0.000  0.00  0.00    -0.001 C 
ATOM     15  C   UNL     1       3.623  -7.774   0.000  0.00  0.00    +0.004 C 
ENDBRANCH  13  14
ENDBRANCH  12  13
ENDBRANCH  11  12
ENDBRANCH  10  11
ENDBRANCH   9  10
TORSDOF 8