REMARK  Name = 208734
REMARK  21 active torsions:
REMARK  status: ('A' for Active; 'I' for Inactive)
REMARK    1  A    between atoms: O_3  and  C_36
REMARK    2  A    between atoms: O_3  and  C_37
REMARK    3  A    between atoms: O_5  and  C_32
REMARK    4  A    between atoms: O_5  and  C_33
REMARK    5  A    between atoms: C_7  and  O_8
REMARK    6  A    between atoms: O_8  and  C_28
REMARK    7  A    between atoms: C_13  and  C_53
REMARK    8  A    between atoms: C_14  and  O_46
REMARK    9  A    between atoms: C_14  and  C_47
REMARK   10  A    between atoms: C_25  and  O_57
REMARK   11  A    between atoms: C_27  and  O_58
REMARK   12  A    between atoms: C_30  and  N_50
REMARK   13  A    between atoms: C_31  and  C_49
REMARK   14  A    between atoms: C_35  and  O_45
REMARK   15  A    between atoms: C_40  and  C_43
REMARK   16  A    between atoms: C_42  and  C_44
REMARK   17  A    between atoms: C_47  and  C_48
REMARK   18  A    between atoms: N_50  and  C_51
REMARK   19  A    between atoms: N_50  and  C_52
REMARK   20  A    between atoms: C_53  and  O_55
REMARK   21  A    between atoms: O_55  and  C_56
REMARK                            x       y       z     vdW  Elec       q    Type
REMARK                         _______ _______ _______ _____ _____    ______ ____
ROOT
ATOM     23  C   UNL     1      -2.000  -6.315   0.000  0.00  0.00    +0.158 C 
ATOM     24  C   UNL     1      -0.523  -6.575   0.000  0.00  0.00    +0.028 A 
ATOM     25  C   UNL     1       0.441  -5.426   0.000  0.00  0.00    +0.134 A 
ATOM     28  C   UNL     1       1.919  -5.687   0.000  0.00  0.00    +0.075 A 
ATOM     29  C   UNL     1       2.883  -4.538   0.000  0.00  0.00    +0.202 C 
ATOM     30  C   UNL     1       4.360  -4.798   0.000  0.00  0.00    +0.075 A 
ATOM     31  C   UNL     1       5.324  -3.649   0.000  0.00  0.00    +0.128 A 
ATOM     34  C   UNL     1       6.801  -3.910   0.000  0.00  0.00    +0.046 A 
ATOM     35  C   UNL     1       7.314  -5.319   0.000  0.00  0.00    +0.004 A 
ATOM     36  C   UNL     1       6.350  -6.468   0.000  0.00  0.00    +0.012 A 
ATOM     37  C   UNL     1       4.873  -6.208   0.000  0.00  0.00    +0.037 A 
ATOM     38  C   UNL     1       3.909  -7.357   0.000  0.00  0.00    +0.195 C 
ATOM     39  O   UNL     1       4.422  -8.766   0.000  0.00  0.00    -0.287 OA
ATOM     40  O   UNL     1       2.370  -3.128   0.000  0.00  0.00    -0.286 OA
ATOM     41  C   UNL     1       2.432  -7.096   0.000  0.00  0.00    +0.037 A 
ATOM     42  C   UNL     1       1.467  -8.245   0.000  0.00  0.00    +0.017 A 
ATOM     43  C   UNL     1      -0.010  -7.985   0.000  0.00  0.00    -0.021 A 
ATOM     44  C   UNL     1      -0.974  -9.134   0.000  0.00  0.00    +0.160 C 
ATOM     49  C   UNL     1      -2.451  -8.873   0.000  0.00  0.00    +0.085 C 
ATOM     54  C   UNL     1      -2.964  -7.464   0.000  0.00  0.00    +0.072 C 
ENDROOT
BRANCH  25  26
ATOM     26  O   UNL     1      -0.072  -4.017   0.000  0.00  0.00    -0.506 OA
ATOM     27  H   UNL     1       0.531  -3.299   0.000  0.00  0.00    +0.292 HD
ENDBRANCH  25  26
BRANCH  31  32
ATOM     32  O   UNL     1       4.811  -2.240   0.000  0.00  0.00    -0.506 OA
ATOM     33  H   UNL     1       5.413  -1.522   0.000  0.00  0.00    +0.292 HD
ENDBRANCH  31  32
BRANCH  44  45
ATOM     45  C   UNL     1      -0.461 -10.544   0.000  0.00  0.00    +0.317 C 
ATOM     48  O   UNL     1      -1.425 -11.693   0.000  0.00  0.00    -0.250 OA
BRANCH  45  46
ATOM     46  O   UNL     1       1.016 -10.804   0.000  0.00  0.00    -0.467 OA
ATOM     47  C   UNL     1       1.529 -12.214   0.000  0.00  0.00    +0.280 C 
ENDBRANCH  45  46
ENDBRANCH  44  45
BRANCH  49  50
ATOM     50  C   UNL     1      -2.451 -10.374   0.000  0.00  0.00    +0.032 C 
ATOM     51  C   UNL     1      -3.750 -11.124   0.000  0.00  0.00    +0.007 C 
ENDBRANCH  49  50
BRANCH  49  52
ATOM     52  O   UNL     1      -3.928  -9.134   0.000  0.00  0.00    -0.387 OA
ATOM     53  H   UNL     1      -4.552  -8.391   0.000  0.00  0.00    +0.210 HD
ENDBRANCH  49  52
BRANCH  23  22
ATOM     22  O   UNL     1      -2.513  -4.905   0.000  0.00  0.00    -0.343 OA
BRANCH  22  20
ATOM     16  C   UNL     1      -7.013  -4.905   0.000  0.00  0.00    +0.167 C 
ATOM     17  C   UNL     1      -6.263  -3.606   0.000  0.00  0.00    +0.149 C 
ATOM     18  C   UNL     1      -5.513  -4.905   0.000  0.00  0.00    +0.041 C 
ATOM     19  O   UNL     1      -4.763  -3.606   0.000  0.00  0.00    -0.346 OA
ATOM     20  C   UNL     1      -4.013  -4.905   0.000  0.00  0.00    +0.253 C 
ATOM     21  C   UNL     1      -4.763  -6.204   0.000  0.00  0.00    +0.083 C 
ATOM     55  C   UNL     1      -6.263  -6.204   0.000  0.00  0.00    +0.092 C 
BRANCH  55  56
ATOM     56  N   UNL     1      -7.013  -7.503   0.000  0.00  0.00    -0.303 NA
ATOM     57  C   UNL     1      -6.263  -8.803   0.000  0.00  0.00    +0.105 C 
ATOM     58  C   UNL     1      -8.513  -7.503   0.000  0.00  0.00    +0.105 C 
ENDBRANCH  55  56
BRANCH  16  15
ATOM     15  O   UNL     1      -8.513  -4.905   0.000  0.00  0.00    -0.344 OA
BRANCH  15  13
ATOM      9  C   UNL     1     -10.763  -1.008   0.000  0.00  0.00    +0.178 C 
ATOM     10  C   UNL     1     -11.513  -2.307   0.000  0.00  0.00    +0.150 C 
ATOM     11  C   UNL     1     -10.013  -2.307   0.000  0.00  0.00    +0.041 C 
ATOM     12  O   UNL     1     -10.763  -3.606   0.000  0.00  0.00    -0.346 OA
ATOM     13  C   UNL     1      -9.263  -3.606   0.000  0.00  0.00    +0.254 C 
ATOM     14  C   UNL     1      -8.513  -2.307   0.000  0.00  0.00    +0.095 C 
ATOM     59  C   UNL     1      -9.263  -1.008   0.000  0.00  0.00    +0.151 C 
BRANCH  59  60
ATOM     60  O   UNL     1      -8.513   0.291   0.000  0.00  0.00    -0.389 OA
ATOM     61  H   UNL     1      -7.543   0.291   0.000  0.00  0.00    +0.210 HD
ENDBRANCH  59  60
BRANCH   9   8
ATOM      8  O   UNL     1     -11.513   0.291   0.000  0.00  0.00    -0.343 OA
BRANCH   8   6
ATOM      1  O   UNL     1     -17.513   0.291   0.000  0.00  0.00    -0.295 OA
ATOM      2  C   UNL     1     -16.013   0.291   0.000  0.00  0.00    +0.162 C 
ATOM      3  C   UNL     1     -15.263   1.590   0.000  0.00  0.00    +0.184 C 
ATOM      4  C   UNL     1     -14.513   0.291   0.000  0.00  0.00    +0.046 C 
ATOM      5  O   UNL     1     -13.763   1.590   0.000  0.00  0.00    -0.341 OA
ATOM      6  C   UNL     1     -13.013   0.291   0.000  0.00  0.00    +0.252 C 
ATOM      7  C   UNL     1     -13.763  -1.008   0.000  0.00  0.00    +0.069 C 
ATOM     62  C   UNL     1     -15.263  -1.008   0.000  0.00  0.00    +0.082 C 
ENDBRANCH   8   6
ENDBRANCH   9   8
ENDBRANCH  15  13
ENDBRANCH  16  15
ENDBRANCH  22  20
ENDBRANCH  23  22
TORSDOF 14