REMARK  Name = 253272
REMARK  5 active torsions:
REMARK  status: ('A' for Active; 'I' for Inactive)
REMARK    1  A    between atoms: N_1  and  O_2
REMARK    2  A    between atoms: O_2  and  C_5
REMARK    3  A    between atoms: C_7  and  C_9
REMARK    4  A    between atoms: N_10  and  C_12
REMARK    5  A    between atoms: N_11  and  C_13
REMARK                            x       y       z     vdW  Elec       q    Type
REMARK                         _______ _______ _______ _____ _____    ______ ____
ROOT
ATOM      1  N   UNL     1       5.439   0.726   0.000  0.00  0.00    -0.046 N 
ATOM      2  C   UNL     1       4.140   1.476   0.000  0.00  0.00    +0.254 C 
ATOM      3  C   UNL     1       2.841   0.726   0.000  0.00  0.00    +0.113 C 
ATOM      4  O   UNL     1       4.140   2.976   0.000  0.00  0.00    -0.272 OA
ATOM     11  C   UNL     1       6.738   1.476   0.000  0.00  0.00    +0.341 C 
ATOM     12  N   UNL     1       8.037   0.726   0.000  0.00  0.00    -0.300 N 
ATOM     13  H   UNL     1       8.037  -0.259   0.000  0.00  0.00    +0.150 HD
ATOM     14  C   UNL     1       9.336   1.476   0.000  0.00  0.00    +0.130 C 
ATOM     15  O   UNL     1       6.738   2.976   0.000  0.00  0.00    -0.249 OA
ENDROOT
BRANCH   1   5
ATOM      5  O   UNL     1       5.439  -0.774   0.000  0.00  0.00    -0.319 OA
BRANCH   5   6
ATOM      6  C   UNL     1       6.849  -1.287   0.000  0.00  0.00    +0.423 C 
ATOM      7  N   UNL     1       7.109  -2.764   0.000  0.00  0.00    -0.283 N 
ATOM      8  H   UNL     1       8.034  -3.101   0.000  0.00  0.00    +0.152 HD
ATOM      9  C   UNL     1       5.960  -3.729   0.000  0.00  0.00    +0.131 C 
ATOM     10  O   UNL     1       7.998  -0.323   0.000  0.00  0.00    -0.224 OA
ENDBRANCH   5   6
ENDBRANCH   1   5
TORSDOF 2