REMARK  Name = 235082
REMARK  4 active torsions:
REMARK  status: ('A' for Active; 'I' for Inactive)
REMARK    1  A    between atoms: C_3  and  C_23
REMARK    2  A    between atoms: C_8  and  N_22
REMARK    3  A    between atoms: C_9  and  N_22
REMARK    4  A    between atoms: C_23  and  O_25
REMARK                            x       y       z     vdW  Elec       q    Type
REMARK                         _______ _______ _______ _____ _____    ______ ____
ROOT
ATOM      1  N   UNL     1      -2.049   3.750   0.000  0.00  0.00    +0.000 NA
ATOM      2  C   UNL     1      -2.049   5.250   0.000  0.00  0.00    +0.000 A 
ATOM      3  C   UNL     1      -0.750   6.000   0.000  0.00  0.00    +0.000 A 
ATOM      4  C   UNL     1      -0.750   7.500   0.000  0.00  0.00    +0.000 A 
ATOM      5  C   UNL     1      -2.049   8.250   0.000  0.00  0.00    +0.000 A 
ATOM      6  C   UNL     1      -3.348   7.500   0.000  0.00  0.00    +0.000 A 
ATOM      7  C   UNL     1      -3.348   6.000   0.000  0.00  0.00    +0.000 A 
ATOM      8  C   UNL     1      -4.647   5.250   0.000  0.00  0.00    +0.000 A 
ATOM     21  C   UNL     1      -4.647   3.750   0.000  0.00  0.00    +0.000 A 
ATOM     22  C   UNL     1      -5.946   3.000   0.000  0.00  0.00    +0.000 A 
ATOM     23  C   UNL     1      -5.946   1.500   0.000  0.00  0.00    +0.000 A 
ATOM     24  C   UNL     1      -4.647   0.750   0.000  0.00  0.00    +0.000 A 
ATOM     25  C   UNL     1      -3.348   1.500   0.000  0.00  0.00    +0.000 A 
ATOM     26  C   UNL     1      -3.348   3.000   0.000  0.00  0.00    +0.000 A 
ENDROOT
BRANCH   8   9
ATOM      9  N   UNL     1      -5.946   6.000   0.000  0.00  0.00    +0.000 N 
ATOM     10  H   UNL     1      -6.799   5.508   0.000  0.00  0.00    +0.000 HD
BRANCH   9  11
ATOM     11  C   UNL     1      -5.946   7.500   0.000  0.00  0.00    +0.000 A 
ATOM     12  C   UNL     1      -4.647   8.250   0.000  0.00  0.00    +0.000 A 
ATOM     13  C   UNL     1      -4.647   9.750   0.000  0.00  0.00    +0.000 A 
ATOM     14  C   UNL     1      -5.946  10.500   0.000  0.00  0.00    +0.000 A 
ATOM     19  C   UNL     1      -7.245   9.750   0.000  0.00  0.00    +0.000 A 
ATOM     20  C   UNL     1      -7.245   8.250   0.000  0.00  0.00    +0.000 A 
BRANCH  14  15
ATOM     15  C   UNL     1      -5.946  12.000   0.000  0.00  0.00    +0.000 C 
ATOM     18  O   UNL     1      -7.245  12.750   0.000  0.00  0.00    +0.000 OA
BRANCH  15  16
ATOM     16  O   UNL     1      -4.647  12.750   0.000  0.00  0.00    +0.000 OA
ATOM     17  H   UNL     1      -3.836  12.282   0.000  0.00  0.00    +0.000 HD
ENDBRANCH  15  16
ENDBRANCH  14  15
ENDBRANCH   9  11
ENDBRANCH   8   9
TORSDOF 4