REMARK  Name = 224124
REMARK  8 active torsions:
REMARK  status: ('A' for Active; 'I' for Inactive)
REMARK    1  A    between atoms: C_3  and  O_19
REMARK    2  A    between atoms: C_4  and  O_20
REMARK    3  A    between atoms: C_11  and  C_21
REMARK    4  A    between atoms: C_12  and  C_22
REMARK    5  A    between atoms: O_13  and  C_15
REMARK    6  A    between atoms: O_13  and  C_22
REMARK    7  A    between atoms: O_14  and  C_18
REMARK    8  A    between atoms: O_14  and  C_21
REMARK                            x       y       z     vdW  Elec       q    Type
REMARK                         _______ _______ _______ _____ _____    ______ ____
ROOT
ATOM      1  C   UNL     1       0.750   4.500   0.000  0.00  0.00    +0.050 A 
ATOM      2  C   UNL     1       0.750   3.000   0.000  0.00  0.00    +0.050 A 
ATOM      3  C   UNL     1       2.049   2.250   0.000  0.00  0.00    +0.129 A 
ATOM      6  C   UNL     1       3.348   3.000   0.000  0.00  0.00    +0.078 A 
ATOM      7  C   UNL     1       4.647   2.250   0.000  0.00  0.00    +0.197 C 
ATOM      8  O   UNL     1       4.647   0.750   0.000  0.00  0.00    -0.287 OA
ATOM      9  C   UNL     1       5.946   3.000   0.000  0.00  0.00    +0.047 C 
ATOM     17  C   UNL     1       5.946   4.500   0.000  0.00  0.00    +0.047 C 
ATOM     25  C   UNL     1       4.647   5.250   0.000  0.00  0.00    +0.197 C 
ATOM     26  O   UNL     1       4.647   6.750   0.000  0.00  0.00    -0.287 OA
ATOM     27  C   UNL     1       3.348   4.500   0.000  0.00  0.00    +0.078 A 
ATOM     28  C   UNL     1       2.049   5.250   0.000  0.00  0.00    +0.129 A 
ENDROOT
BRANCH   3   4
ATOM      4  O   UNL     1       2.049   0.750   0.000  0.00  0.00    -0.506 OA
ATOM      5  H   UNL     1       1.238   0.281   0.000  0.00  0.00    +0.292 HD
ENDBRANCH   3   4
BRANCH  28  29
ATOM     29  O   UNL     1       2.049   6.750   0.000  0.00  0.00    -0.506 OA
ATOM     30  H   UNL     1       2.860   7.218   0.000  0.00  0.00    +0.292 HD
ENDBRANCH  28  29
BRANCH   9  10
ATOM     10  C   UNL     1       7.245   2.250   0.000  0.00  0.00    +0.273 C 
BRANCH  10  11
ATOM     11  O   UNL     1       6.985   0.773   0.000  0.00  0.00    -0.446 OA
BRANCH  11  12
ATOM     12  C   UNL     1       8.134  -0.191   0.000  0.00  0.00    +0.398 C 
ATOM     13  N   UNL     1       9.543   0.322   0.000  0.00  0.00    -0.295 N 
ATOM     14  H   UNL     1       9.714   1.291   0.000  0.00  0.00    +0.148 HD
ATOM     15  H   UNL     1      10.298  -0.311   0.000  0.00  0.00    +0.148 HD
ATOM     16  O   UNL     1       7.873  -1.669   0.000  0.00  0.00    -0.227 OA
ENDBRANCH  11  12
ENDBRANCH  10  11
ENDBRANCH   9  10
BRANCH  17  18
ATOM     18  C   UNL     1       7.245   5.250   0.000  0.00  0.00    +0.273 C 
BRANCH  18  19
ATOM     19  O   UNL     1       7.245   6.750   0.000  0.00  0.00    -0.446 OA
BRANCH  19  20
ATOM     20  C   UNL     1       8.544   7.500   0.000  0.00  0.00    +0.398 C 
ATOM     21  N   UNL     1       8.544   9.000   0.000  0.00  0.00    -0.295 N 
ATOM     22  H   UNL     1       7.692   9.492   0.000  0.00  0.00    +0.148 HD
ATOM     23  H   UNL     1       9.397   9.492   0.000  0.00  0.00    +0.148 HD
ATOM     24  O   UNL     1       9.843   6.750   0.000  0.00  0.00    -0.227 OA
ENDBRANCH  19  20
ENDBRANCH  18  19
ENDBRANCH  17  18
TORSDOF 8