REMARK  Name = 191393
REMARK  4 active torsions:
REMARK  status: ('A' for Active; 'I' for Inactive)
REMARK    1  A    between atoms: C_2  and  C_14
REMARK    2  A    between atoms: C_4  and  N_15
REMARK    3  A    between atoms: C_9  and  C_19
REMARK    4  A    between atoms: C_16  and  C_18
REMARK                            x       y       z     vdW  Elec       q    Type
REMARK                         _______ _______ _______ _____ _____    ______ ____
ROOT
ATOM      9  N   UNL     1       8.819  -4.774   0.000  0.00  0.00    -0.281 N 
ATOM     10  H   UNL     1       9.671  -5.267   0.000  0.00  0.00    +0.155 HD
ATOM     11  C   UNL     1       8.819  -3.275   0.000  0.00  0.00    +0.241 C 
ATOM     20  O   UNL     1      10.118  -2.525   0.000  0.00  0.00    -0.270 OA
ENDROOT
BRANCH   9   8
ATOM      1 CL   UNL     1       8.819  -7.774   0.000  0.00  0.00    -0.082 Cl
ATOM      2  C   UNL     1       7.520  -7.024   0.000  0.00  0.00    +0.062 A 
ATOM      3  C   UNL     1       6.221  -7.774   0.000  0.00  0.00    +0.022 A 
ATOM      4  C   UNL     1       4.922  -7.024   0.000  0.00  0.00    +0.002 A 
ATOM      5  C   UNL     1       4.922  -5.524   0.000  0.00  0.00    +0.005 A 
ATOM      6  C   UNL     1       6.221  -4.774   0.000  0.00  0.00    -0.028 A 
ATOM      7  C   UNL     1       6.221  -3.275   0.000  0.00  0.00    +0.046 C 
ATOM      8  C   UNL     1       7.520  -5.524   0.000  0.00  0.00    +0.055 A 
ENDBRANCH   9   8
BRANCH  11  12
ATOM     12  C   UNL     1       7.520  -2.525   0.000  0.00  0.00    +0.068 C 
ATOM     13  C   UNL     1       7.520  -1.025   0.000  0.00  0.00    +0.013 C 
BRANCH  13  14
ATOM     14  C   UNL     1       6.221  -0.275   0.000  0.00  0.00    -0.025 A 
ATOM     15  C   UNL     1       6.221   1.226   0.000  0.00  0.00    +0.008 A 
ATOM     16  C   UNL     1       4.922   1.976   0.000  0.00  0.00    +0.001 A 
ATOM     17  C   UNL     1       3.623   1.226   0.000  0.00  0.00    +0.000 A 
ATOM     18  C   UNL     1       3.623  -0.275   0.000  0.00  0.00    +0.001 A 
ATOM     19  C   UNL     1       4.922  -1.025   0.000  0.00  0.00    +0.008 A 
ENDBRANCH  13  14
ENDBRANCH  11  12
TORSDOF 3