REMARK  Name = 2186
REMARK  12 active torsions:
REMARK  status: ('A' for Active; 'I' for Inactive)
REMARK    1  A    between atoms: C_5  and  C_13
REMARK    2  A    between atoms: C_5  and  C_14
REMARK    3  A    between atoms: C_10  and  C_25
REMARK    4  A    between atoms: C_12  and  O_29
REMARK    5  A    between atoms: C_15  and  C_30
REMARK    6  A    between atoms: C_16  and  C_26
REMARK    7  A    between atoms: C_18  and  C_24
REMARK    8  A    between atoms: C_19  and  O_23
REMARK    9  A    between atoms: C_26  and  C_27
REMARK   10  A    between atoms: C_26  and  C_28
REMARK   11  A    between atoms: C_30  and  C_31
REMARK   12  A    between atoms: C_30  and  C_32
REMARK                            x       y       z     vdW  Elec       q    Type
REMARK                         _______ _______ _______ _____ _____    ______ ____
ROOT
ATOM      1  C   UNL     1      -9.671  -2.217   0.000  0.00  0.00    +0.341 C 
ATOM      2  C   UNL     1     -10.674  -3.332   0.000  0.00  0.00    +0.067 A 
ATOM      3  C   UNL     1      -9.924  -4.631   0.000  0.00  0.00    +0.019 A 
ATOM      4  C   UNL     1     -10.674  -5.930   0.000  0.00  0.00    +0.009 A 
ATOM      5  C   UNL     1     -12.174  -5.930   0.000  0.00  0.00    +0.000 A 
ATOM      6  C   UNL     1     -12.924  -4.631   0.000  0.00  0.00    +0.001 A 
ATOM      7  C   UNL     1      -8.457  -4.319   0.000  0.00  0.00    +0.190 C 
ATOM     32  C   UNL     1     -12.174  -3.332   0.000  0.00  0.00    +0.015 A 
ATOM     33  O   UNL     1      -8.300  -2.827   0.000  0.00  0.00    -0.440 OA
ATOM     34  O   UNL     1      -9.982  -0.750   0.000  0.00  0.00    -0.245 OA
ENDROOT
BRANCH   7   8
ATOM      8  C   UNL     1      -8.171  -7.038   0.000  0.00  0.00    +0.008 A 
ATOM      9  C   UNL     1      -6.801  -7.648   0.000  0.00  0.00    -0.039 A 
ATOM     10  C   UNL     1      -5.587  -6.766   0.000  0.00  0.00    +0.044 C 
ATOM     11  C   UNL     1      -6.644  -9.140   0.000  0.00  0.00    +0.049 A 
ATOM     12  C   UNL     1      -7.858 -10.022   0.000  0.00  0.00    +0.121 A 
ATOM     15  C   UNL     1      -9.228  -9.411   0.000  0.00  0.00    -0.003 A 
ATOM     19  C   UNL     1      -9.385  -7.920   0.000  0.00  0.00    +0.016 A 
BRANCH  15  16
ATOM     16  C   UNL     1     -10.442 -10.293   0.000  0.00  0.00    +0.016 C 
ATOM     17  C   UNL     1     -11.812  -9.683   0.000  0.00  0.00    +0.012 C 
ATOM     18  C   UNL     1     -10.285 -11.785   0.000  0.00  0.00    +0.012 C 
ENDBRANCH  15  16
BRANCH  12  13
ATOM     13  O   UNL     1      -7.701 -11.513   0.000  0.00  0.00    -0.506 OA
ATOM     14  H   UNL     1      -8.459 -12.064   0.000  0.00  0.00    +0.292 HD
ENDBRANCH  12  13
ENDBRANCH   7   8
BRANCH   7  20
ATOM     20  C   UNL     1      -5.723  -4.319   0.000  0.00  0.00    +0.008 A 
ATOM     21  C   UNL     1      -4.973  -5.618   0.000  0.00  0.00    +0.016 A 
ATOM     22  C   UNL     1      -3.473  -5.618   0.000  0.00  0.00    -0.003 A 
ATOM     26  C   UNL     1      -2.723  -4.319   0.000  0.00  0.00    +0.121 A 
ATOM     29  C   UNL     1      -3.473  -3.020   0.000  0.00  0.00    +0.049 A 
ATOM     30  C   UNL     1      -4.973  -3.020   0.000  0.00  0.00    -0.039 A 
ATOM     31  C   UNL     1      -5.723  -1.721   0.000  0.00  0.00    +0.044 C 
BRANCH  22  23
ATOM     23  C   UNL     1      -2.723  -6.917   0.000  0.00  0.00    +0.016 C 
ATOM     24  C   UNL     1      -3.473  -8.216   0.000  0.00  0.00    +0.012 C 
ATOM     25  C   UNL     1      -1.223  -6.917   0.000  0.00  0.00    +0.012 C 
ENDBRANCH  22  23
BRANCH  26  27
ATOM     27  O   UNL     1      -1.223  -4.319   0.000  0.00  0.00    -0.506 OA
ATOM     28  H   UNL     1      -0.755  -5.131   0.000  0.00  0.00    +0.292 HD
ENDBRANCH  26  27
ENDBRANCH   7  20
TORSDOF 6