REMARK  Name = 218439
REMARK  10 active torsions:
REMARK  status: ('A' for Active; 'I' for Inactive)
REMARK    1  A    between atoms: N_2  and  C_33
REMARK    2  A    between atoms: N_3  and  C_42
REMARK    3  A    between atoms: C_7  and  N_30
REMARK    4  A    between atoms: C_10  and  N_34
REMARK    5  A    between atoms: C_15  and  C_35
REMARK    6  A    between atoms: C_16  and  N_34
REMARK    7  A    between atoms: C_17  and  N_37
REMARK    8  A    between atoms: C_20  and  N_40
REMARK    9  A    between atoms: C_23  and  N_41
REMARK   10  A    between atoms: C_26  and  N_41
REMARK                            x       y       z     vdW  Elec       q    Type
REMARK                         _______ _______ _______ _____ _____    ______ ____
ROOT
ATOM      8  C   UNL     1      -5.946  15.000   0.000  0.00  0.00    +0.038 A 
ATOM      9  C   UNL     1      -7.245  14.250   0.000  0.00  0.00    +0.108 A 
ATOM     10  C   UNL     1      -7.245  12.750   0.000  0.00  0.00    +0.287 A 
ATOM     14  C   UNL     1      -5.946  12.000   0.000  0.00  0.00    +0.114 A 
ATOM     34  C   UNL     1      -4.647  12.750   0.000  0.00  0.00    +0.021 A 
ATOM     35  C   UNL     1      -4.647  14.250   0.000  0.00  0.00    +0.024 A 
ENDROOT
BRANCH  14  15
ATOM     15  C   UNL     1      -5.946  10.500   0.000  0.00  0.00    +0.255 C 
ATOM     16  N   UNL     1      -7.245   9.750   0.000  0.00  0.00    -0.281 N 
ATOM     17  H   UNL     1      -8.098  10.242   0.000  0.00  0.00    +0.155 HD
ATOM     33  O   UNL     1      -4.647   9.750   0.000  0.00  0.00    -0.270 OA
BRANCH  16  18
ATOM     18  C   UNL     1      -7.245   8.250   0.000  0.00  0.00    +0.034 A 
ATOM     19  C   UNL     1      -8.544   7.500   0.000  0.00  0.00    +0.025 A 
ATOM     20  C   UNL     1      -8.544   6.000   0.000  0.00  0.00    +0.025 A 
ATOM     21  C   UNL     1      -7.245   5.250   0.000  0.00  0.00    +0.031 A 
ATOM     31  C   UNL     1      -5.946   6.000   0.000  0.00  0.00    +0.025 A 
ATOM     32  C   UNL     1      -5.946   7.500   0.000  0.00  0.00    +0.025 A 
BRANCH  21  22
ATOM     22  N   UNL     1      -7.245   3.750   0.000  0.00  0.00    -0.314 N 
ATOM     23  H   UNL     1      -8.098   3.258   0.000  0.00  0.00    +0.152 HD
BRANCH  22  24
ATOM     24  C   UNL     1      -5.946   3.000   0.000  0.00  0.00    +0.043 A 
ATOM     25  C   UNL     1      -5.946   1.500   0.000  0.00  0.00    +0.093 A 
ATOM     26  C   UNL     1      -4.647   0.750   0.000  0.00  0.00    +0.310 A 
ATOM     27  N   UNL     1      -3.348   1.500   0.000  0.00  0.00    -0.206 N 
ATOM     28  C   UNL     1      -2.049   0.750   0.000  0.00  0.00    +0.438 C 
ATOM     29  C   UNL     1      -3.348   3.000   0.000  0.00  0.00    +0.310 A 
ATOM     30  C   UNL     1      -4.647   3.750   0.000  0.00  0.00    +0.093 A 
ENDBRANCH  22  24
ENDBRANCH  21  22
ENDBRANCH  16  18
ENDBRANCH  14  15
BRANCH  10  11
ATOM     11  N   UNL     1      -8.544  12.000   0.000  0.00  0.00    +0.080 N 
ATOM     12  O   UNL     1      -9.843  12.750   0.000  0.00  0.00    +0.041 OA
ATOM     13  O   UNL     1      -8.544  10.500   0.000  0.00  0.00    -0.576 OA
ENDBRANCH  10  11
BRANCH   8   6
ATOM      6  N   UNL     1      -5.946  16.500   0.000  0.00  0.00    -0.314 N 
ATOM      7  H   UNL     1      -6.799  16.992   0.000  0.00  0.00    +0.152 HD
BRANCH   6   5
ATOM      1  N   UNL     1      -2.049  18.750   0.000  0.00  0.00    -0.200 N 
ATOM      2  C   UNL     1      -0.750  19.500   0.000  0.00  0.00    +0.439 C 
ATOM      3  C   UNL     1      -3.348  19.500   0.000  0.00  0.00    +0.217 A 
ATOM      4  C   UNL     1      -4.647  18.750   0.000  0.00  0.00    +0.074 A 
ATOM      5  C   UNL     1      -4.647  17.250   0.000  0.00  0.00    +0.051 A 
ATOM     36  C   UNL     1      -3.348  16.500   0.000  0.00  0.00    +0.093 A 
ATOM     37  C   UNL     1      -5.946  19.500   0.000  0.00  0.00    +0.100 A 
ATOM     38  C   UNL     1      -5.946  21.000   0.000  0.00  0.00    +0.274 A 
ATOM     42  C   UNL     1      -4.647  21.750   0.000  0.00  0.00    +0.091 A 
ATOM     43  C   UNL     1      -3.348  21.000   0.000  0.00  0.00    +0.085 A 
ATOM     44  C   UNL     1      -2.049  17.250   0.000  0.00  0.00    +0.311 A 
BRANCH  38  39
ATOM     39  N   UNL     1      -7.245  21.750   0.000  0.00  0.00    +0.080 N 
ATOM     40  O   UNL     1      -8.544  21.000   0.000  0.00  0.00    +0.041 OA
ATOM     41  O   UNL     1      -7.245  23.250   0.000  0.00  0.00    -0.576 OA
ENDBRANCH  38  39
ENDBRANCH   6   5
ENDBRANCH   8   6
TORSDOF 8