REMARK  Name = 19994
REMARK  5 active torsions:
REMARK  status: ('A' for Active; 'I' for Inactive)
REMARK    1  A    between atoms: C1*_6  and  N9_16
REMARK    2  A    between atoms: C4*_7  and  C5*_19
REMARK    3  A    between atoms: C2*_8  and  O2*_21
REMARK    4  A    between atoms: C3*_9  and  O3*_20
REMARK    5  A    between atoms: O5*_18  and  C5*_19
REMARK                            x       y       z     vdW  Elec       q    Type
REMARK                         _______ _______ _______ _____ _____    ______ ____
ROOT
ATOM      1  C6    G A   1       0.235   3.812   0.000  0.00  0.00    +0.280 A 
ATOM      2  N1    G A   1      -1.262   3.900   0.000  0.00  0.00    -0.293 N 
ATOM      3  H1    G A   1      -1.935   5.240   0.000  0.00  0.00    +0.172 HD
ATOM      4  C2    G A   1      -2.087   2.647   0.000  0.00  0.00    +0.195 A 
ATOM      5  N2    G A   1      -3.585   2.735   0.000  0.00  0.00    -0.329 N 
ATOM      6  H21   G A   1      -4.126   1.912   0.000  0.00  0.00    +0.145 HD
ATOM      7  H22   G A   1      -4.026   3.615   0.000  0.00  0.00    +0.145 HD
ATOM      8  N3    G A   1      -1.415   1.306   0.000  0.00  0.00    -0.196 NA
ATOM      9  C4    G A   1       0.083   1.218   0.000  0.00  0.00    +0.171 A 
ATOM     10  N9    G A   1       1.020   0.047   0.000  0.00  0.00    -0.285 N 
ATOM     23  C8    G A   1       2.423   0.576   0.000  0.00  0.00    +0.203 A 
ATOM     24  N7    G A   1       2.354   2.074   0.000  0.00  0.00    -0.229 NA
ATOM     25  C5    G A   1       0.908   2.471   0.000  0.00  0.00    +0.172 A 
ATOM     26  O6    G A   1       1.060   5.065   0.000  0.00  0.00    -0.265 OA
ENDROOT
BRANCH  10  11
ATOM     11  C1*   G A   1       0.622  -1.400   0.000  0.00  0.00    +0.253 C 
ATOM     12  O4*   G A   1      -0.781  -1.929   0.000  0.00  0.00    -0.346 OA
ATOM     13  C4*   G A   1      -0.712  -3.427   0.000  0.00  0.00    +0.177 C 
ATOM     17  C3*   G A   1       0.734  -3.824   0.000  0.00  0.00    +0.178 C 
ATOM     20  C2*   G A   1       1.559  -2.571   0.000  0.00  0.00    +0.195 C 
BRANCH  17  18
ATOM     18  O3*   G A   1       1.263  -5.228   0.000  0.00  0.00    -0.386 OA
ATOM     19  H3*   G A   1       0.648  -5.978   0.000  0.00  0.00    +0.210 HD
ENDBRANCH  17  18
BRANCH  20  21
ATOM     21  O2*   G A   1       3.058  -2.502   0.000  0.00  0.00    -0.385 OA
ATOM     22  H2*   G A   1       3.581  -3.319   0.000  0.00  0.00    +0.210 HD
ENDBRANCH  20  21
BRANCH  13  14
ATOM     14  C5*   G A   1      -1.884  -4.364   0.000  0.00  0.00    +0.190 C 
BRANCH  14  15
ATOM     15  O5*   G A   1      -1.658  -5.847   0.000  0.00  0.00    -0.392 OA
ATOM     16  H5*   G A   1      -2.416  -6.452   0.000  0.00  0.00    +0.210 HD
ENDBRANCH  14  15
ENDBRANCH  13  14
ENDBRANCH  10  11
TORSDOF 5