REMARK  Name = 249992
REMARK  7 active torsions:
REMARK  status: ('A' for Active; 'I' for Inactive)
REMARK    1  A    between atoms: C_2  and  N_21
REMARK    2  A    between atoms: C_6  and  O_26
REMARK    3  A    between atoms: C_7  and  N_22
REMARK    4  A    between atoms: C_8  and  N_22
REMARK    5  A    between atoms: N_21  and  S_23
REMARK    6  A    between atoms: S_23  and  C_28
REMARK    7  A    between atoms: O_26  and  C_27
REMARK                            x       y       z     vdW  Elec       q    Type
REMARK                         _______ _______ _______ _____ _____    ______ ____
ROOT
ATOM      9  N   UNL     1       3.604   7.640   0.000  0.00  0.00    -0.311 N 
ATOM     10  H   UNL     1       2.798   8.204   0.000  0.00  0.00    +0.152 HD
ENDROOT
BRANCH   9   8
ATOM      1  N   UNL     1       3.604   3.140   0.000  0.00  0.00    -0.247 NA
ATOM      2  C   UNL     1       4.904   3.890   0.000  0.00  0.00    +0.073 A 
ATOM      3  C   UNL     1       6.202   3.140   0.000  0.00  0.00    +0.028 A 
ATOM      4  C   UNL     1       7.502   3.890   0.000  0.00  0.00    +0.002 A 
ATOM      5  C   UNL     1       7.502   5.390   0.000  0.00  0.00    +0.001 A 
ATOM      6  C   UNL     1       6.202   6.140   0.000  0.00  0.00    +0.012 A 
ATOM      7  C   UNL     1       4.904   5.390   0.000  0.00  0.00    +0.022 A 
ATOM      8  C   UNL     1       3.604   6.140   0.000  0.00  0.00    +0.050 A 
ATOM     25  C   UNL     1       2.305   5.390   0.000  0.00  0.00    +0.022 A 
ATOM     26  C   UNL     1       1.006   6.140   0.000  0.00  0.00    +0.012 A 
ATOM     27  C   UNL     1      -0.293   5.390   0.000  0.00  0.00    +0.001 A 
ATOM     28  C   UNL     1      -0.293   3.890   0.000  0.00  0.00    +0.002 A 
ATOM     29  C   UNL     1       1.006   3.140   0.000  0.00  0.00    +0.028 A 
ATOM     30  C   UNL     1       2.305   3.890   0.000  0.00  0.00    +0.073 A 
ENDBRANCH   9   8
BRANCH   9  11
ATOM     11  C   UNL     1       5.014   8.153   0.000  0.00  0.00    +0.074 A 
ATOM     12  C   UNL     1       5.274   9.630   0.000  0.00  0.00    +0.143 A 
ATOM     15  C   UNL     1       6.684  10.143   0.000  0.00  0.00    +0.072 A 
ATOM     16  C   UNL     1       7.833   9.179   0.000  0.00  0.00    +0.051 A 
ATOM     23  C   UNL     1       7.573   7.702   0.000  0.00  0.00    +0.026 A 
ATOM     24  C   UNL     1       6.163   7.189   0.000  0.00  0.00    +0.029 A 
BRANCH  12  13
ATOM     13  O   UNL     1       4.125  10.594   0.000  0.00  0.00    -0.493 OA
ATOM     14  C   UNL     1       4.386  12.071   0.000  0.00  0.00    +0.277 C 
ENDBRANCH  12  13
BRANCH  16  17
ATOM     17  N   UNL     1       9.243   9.692   0.000  0.00  0.00    -0.221 N 
ATOM     18  H   UNL     1       9.997   9.059   0.000  0.00  0.00    +0.173 HD
BRANCH  17  19
ATOM     19  S   UNL     1       9.503  11.169   0.000  0.00  0.00    +0.040 S 
ATOM     20  C   UNL     1       9.764  12.646   0.000  0.00  0.00    +0.218 C 
ATOM     21  O   UNL     1      10.980  10.909   0.000  0.00  0.00    -0.155 OA
ATOM     22  O   UNL     1       8.026  11.430   0.000  0.00  0.00    -0.155 OA
ENDBRANCH  17  19
ENDBRANCH  16  17
ENDBRANCH   9  11
TORSDOF 5