REMARK  Name = 196524
REMARK  10 active torsions:
REMARK  status: ('A' for Active; 'I' for Inactive)
REMARK    1  A    between atoms: C_3  and  O_27
REMARK    2  A    between atoms: C_3  and  C_30
REMARK    3  A    between atoms: C_9  and  O_22
REMARK    4  A    between atoms: C_11  and  C_25
REMARK    5  A    between atoms: C_17  and  O_21
REMARK    6  A    between atoms: C_19  and  O_23
REMARK    7  A    between atoms: C_20  and  O_24
REMARK    8  A    between atoms: C_25  and  O_28
REMARK    9  A    between atoms: O_28  and  C_29
REMARK   10  A    between atoms: C_30  and  C_31
REMARK                            x       y       z     vdW  Elec       q    Type
REMARK                         _______ _______ _______ _____ _____    ______ ____
ROOT
ATOM      1  O   UNL     1       4.647   6.750   0.000  0.00  0.00    -0.286 OA
ATOM      2  C   UNL     1       4.647   5.250   0.000  0.00  0.00    +0.198 C 
ATOM      3  C   UNL     1       5.946   4.500   0.000  0.00  0.00    +0.078 A 
ATOM      4  C   UNL     1       5.946   3.000   0.000  0.00  0.00    +0.078 A 
ATOM      5  C   UNL     1       4.647   2.250   0.000  0.00  0.00    +0.202 C 
ATOM      6  C   UNL     1       3.348   3.000   0.000  0.00  0.00    +0.075 A 
ATOM      7  C   UNL     1       2.049   2.250   0.000  0.00  0.00    +0.128 A 
ATOM     10  C   UNL     1       0.750   3.000   0.000  0.00  0.00    +0.046 A 
ATOM     11  C   UNL     1       0.750   4.500   0.000  0.00  0.00    +0.004 A 
ATOM     12  C   UNL     1       2.049   5.250   0.000  0.00  0.00    +0.012 A 
ATOM     13  O   UNL     1       4.647   0.750   0.000  0.00  0.00    -0.286 OA
ATOM     14  C   UNL     1       7.245   2.250   0.000  0.00  0.00    +0.134 A 
ATOM     17  C   UNL     1       8.544   3.000   0.000  0.00  0.00    +0.031 A 
ATOM     18  C   UNL     1       9.843   2.250   0.000  0.00  0.00    +0.151 C 
ATOM     21  C   UNL     1      11.142   3.000   0.000  0.00  0.00    +0.072 C 
ATOM     22  C   UNL     1      11.142   4.500   0.000  0.00  0.00    +0.086 C 
ATOM     27  C   UNL     1       9.843   5.250   0.000  0.00  0.00    +0.163 C 
ATOM     32  C   UNL     1       8.544   4.500   0.000  0.00  0.00    +0.020 A 
ATOM     33  C   UNL     1       7.245   5.250   0.000  0.00  0.00    +0.133 A 
ATOM     36  C   UNL     1       3.348   4.500   0.000  0.00  0.00    +0.037 A 
ENDROOT
BRANCH   7   8
ATOM      8  O   UNL     1       2.049   0.750   0.000  0.00  0.00    -0.506 OA
ATOM      9  H   UNL     1       1.238   0.281   0.000  0.00  0.00    +0.292 HD
ENDBRANCH   7   8
BRANCH  14  15
ATOM     15  O   UNL     1       7.245   0.750   0.000  0.00  0.00    -0.506 OA
ATOM     16  H   UNL     1       6.434   0.281   0.000  0.00  0.00    +0.292 HD
ENDBRANCH  14  15
BRANCH  18  19
ATOM     19  O   UNL     1       9.843   0.750   0.000  0.00  0.00    -0.387 OA
ATOM     20  H   UNL     1       9.003   0.265   0.000  0.00  0.00    +0.210 HD
ENDBRANCH  18  19
BRANCH  22  23
ATOM     23  C   UNL     1      12.620   4.239   0.000  0.00  0.00    +0.032 C 
ATOM     24  C   UNL     1      13.133   2.830   0.000  0.00  0.00    +0.007 C 
ENDBRANCH  22  23
BRANCH  22  25
ATOM     25  O   UNL     1      11.655   5.910   0.000  0.00  0.00    -0.387 OA
ATOM     26  H   UNL     1      12.611   6.078   0.000  0.00  0.00    +0.210 HD
ENDBRANCH  22  25
BRANCH  27  28
ATOM     28  C   UNL     1       9.843   6.750   0.000  0.00  0.00    +0.317 C 
ATOM     31  O   UNL     1       8.544   7.500   0.000  0.00  0.00    -0.250 OA
BRANCH  28  29
ATOM     29  O   UNL     1      11.142   7.500   0.000  0.00  0.00    -0.467 OA
ATOM     30  C   UNL     1      11.142   9.000   0.000  0.00  0.00    +0.280 C 
ENDBRANCH  28  29
ENDBRANCH  27  28
BRANCH  33  34
ATOM     34  O   UNL     1       7.245   6.750   0.000  0.00  0.00    -0.506 OA
ATOM     35  H   UNL     1       8.057   7.218   0.000  0.00  0.00    +0.292 HD
ENDBRANCH  33  34
TORSDOF 8