REMARK  Name = 19990
REMARK  20 active torsions:
REMARK  status: ('A' for Active; 'I' for Inactive)
REMARK    1  A    between atoms: C_7  and  C_41
REMARK    2  A    between atoms: C_8  and  O_43
REMARK    3  A    between atoms: C_9  and  C_51
REMARK    4  A    between atoms: C_12  and  O_47
REMARK    5  A    between atoms: C_12  and  C_48
REMARK    6  A    between atoms: C_13  and  O_46
REMARK    7  A    between atoms: C_14  and  C_45
REMARK    8  A    between atoms: C_15  and  O_38
REMARK    9  A    between atoms: C_17  and  C_36
REMARK   10  A    between atoms: C_18  and  O_35
REMARK   11  A    between atoms: C_21  and  O_52
REMARK   12  A    between atoms: C_22  and  C_50
REMARK   13  A    between atoms: C_23  and  C_37
REMARK   14  A    between atoms: C_24  and  C_56
REMARK   15  A    between atoms: C_29  and  O_49
REMARK   16  A    between atoms: C_32  and  C_44
REMARK   17  A    between atoms: C_39  and  O_40
REMARK   18  A    between atoms: O_40  and  C_41
REMARK   19  A    between atoms: O_52  and  C_53
REMARK   20  A    between atoms: C_53  and  C_55
REMARK                            x       y       z     vdW  Elec       q    Type
REMARK                         _______ _______ _______ _____ _____    ______ ____
ROOT
ATOM      1  O   UNL     1       4.750 -14.412   0.000  0.00  0.00    -0.270 OA
ATOM      2  C   UNL     1       5.801 -13.341   0.000  0.00  0.00    +0.244 C 
ATOM      3  C   UNL     1       4.863 -12.171   0.000  0.00  0.00    +0.012 C 
ATOM      4  C   UNL     1       3.589 -12.964   0.000  0.00  0.00    +0.049 C 
ATOM      5  C   UNL     1       4.480 -10.729   0.000  0.00  0.00    +0.008 C 
ATOM      6  C   UNL     1       3.929  -9.342   0.000  0.00  0.00    -0.003 C 
ATOM      7  C   UNL     1       3.986  -7.843   0.000  0.00  0.00    -0.021 C 
ATOM      8  C   UNL     1       4.395  -6.400   0.000  0.00  0.00    +0.037 C 
ATOM      9  C   UNL     1       3.011  -5.823   0.000  0.00  0.00    +0.014 C 
ATOM     10  C   UNL     1       5.133  -5.094   0.000  0.00  0.00    +0.126 C 
ATOM     13  C   UNL     1       6.158  -3.999   0.000  0.00  0.00    +0.044 C 
ATOM     14  C   UNL     1       5.192  -2.851   0.000  0.00  0.00    +0.013 C 
ATOM     15  C   UNL     1       7.412  -3.176   0.000  0.00  0.00    +0.136 C 
ATOM     18  C   UNL     1       8.825  -2.672   0.000  0.00  0.00    +0.155 C 
ATOM     23  C   UNL     1      10.316  -2.515   0.000  0.00  0.00    +0.136 C 
ATOM     26  C   UNL     1      11.803  -2.715   0.000  0.00  0.00    +0.047 C 
ATOM     27  C   UNL     1      12.178  -1.262   0.000  0.00  0.00    +0.013 C 
ATOM     28  C   UNL     1      13.201  -3.259   0.000  0.00  0.00    +0.155 C 
ATOM     31  C   UNL     1      14.431  -4.117   0.000  0.00  0.00    +0.108 C 
ATOM     32  C   UNL     1      15.873  -3.704   0.000  0.00  0.00    +0.048 C 
ATOM     35  C   UNL     1      15.204  -5.394   0.000  0.00  0.00    +0.016 C 
ATOM     36  C   UNL     1      16.124  -6.569   0.000  0.00  0.00    -0.009 C 
ATOM     37  C   UNL     1      17.620  -6.463   0.000  0.00  0.00    +0.047 C 
ATOM     38  C   UNL     1      14.045 -12.354   0.000  0.00  0.00    +0.139 C 
ATOM     39  C   UNL     1      14.059 -13.854   0.000  0.00  0.00    +0.071 C 
ATOM     40  C   UNL     1      12.767 -14.616   0.000  0.00  0.00    +0.046 A 
ATOM     41  C   UNL     1      11.332 -15.052   0.000  0.00  0.00    +0.145 A 
ATOM     46  C   UNL     1       9.835 -15.137   0.000  0.00  0.00    +0.017 A 
ATOM     47  C   UNL     1       9.742 -16.635   0.000  0.00  0.00    +0.049 C 
ATOM     48  C   UNL     1       8.359 -14.868   0.000  0.00  0.00    +0.083 A 
ATOM     49  C   UNL     1      11.496 -16.890   0.000  0.00  0.00    +0.150 A 
ATOM     52  C   UNL     1      12.781 -16.116   0.000  0.00  0.00    +0.077 A 
ATOM     53  C   UNL     1      14.088 -16.853   0.000  0.00  0.00    +0.197 C 
ATOM     54  C   UNL     1      15.379 -16.091   0.000  0.00  0.00    +0.039 C 
ATOM     55  C   UNL     1      16.686 -16.829   0.000  0.00  0.00    +0.051 C 
ATOM     56  O   UNL     1      14.102 -18.353   0.000  0.00  0.00    -0.287 OA
ATOM     57  C   UNL     1      15.365 -14.591   0.000  0.00  0.00    +0.143 C 
ATOM     58  O   UNL     1      16.657 -13.829   0.000  0.00  0.00    -0.455 OA
ATOM     59  C   UNL     1      16.643 -12.329   0.000  0.00  0.00    +0.466 C 
ATOM     60  O   UNL     1      15.337 -11.591   0.000  0.00  0.00    -0.455 OA
ATOM     61  N   UNL     1       6.989 -14.257   0.000  0.00  0.00    -0.279 N 
ATOM     62  H   UNL     1       6.220 -15.545   0.000  0.00  0.00    +0.155 HD
ENDROOT
BRANCH  10  11
ATOM     11  O   UNL     1       3.924  -4.207   0.000  0.00  0.00    -0.391 OA
ATOM     12  H   UNL     1       4.030  -3.242   0.000  0.00  0.00    +0.210 HD
ENDBRANCH  10  11
BRANCH  15  16
ATOM     16  O   UNL     1       6.744  -1.833   0.000  0.00  0.00    -0.391 OA
ATOM     17  H   UNL     1       7.280  -1.025   0.000  0.00  0.00    +0.210 HD
ENDBRANCH  15  16
BRANCH  18  19
ATOM     19  C   UNL     1       8.492  -1.209   0.000  0.00  0.00    +0.315 C 
ATOM     20  O   UNL     1       9.592  -0.190   0.000  0.00  0.00    -0.250 OA
BRANCH  19  21
ATOM     21  O   UNL     1       7.059  -0.766   0.000  0.00  0.00    -0.468 OA
ATOM     22  C   UNL     1       6.726   0.697   0.000  0.00  0.00    +0.280 C 
ENDBRANCH  19  21
ENDBRANCH  18  19
BRANCH  23  24
ATOM     24  O   UNL     1      10.338  -1.015   0.000  0.00  0.00    -0.391 OA
ATOM     25  H   UNL     1      11.185  -0.542   0.000  0.00  0.00    +0.210 HD
ENDBRANCH  23  24
BRANCH  28  29
ATOM     29  O   UNL     1      13.907  -1.936   0.000  0.00  0.00    -0.388 OA
ATOM     30  H   UNL     1      14.877  -1.904   0.000  0.00  0.00    +0.210 HD
ENDBRANCH  28  29
BRANCH  31  33
ATOM     33  O   UNL     1      14.677  -2.638   0.000  0.00  0.00    -0.382 OA
ATOM     34  H   UNL     1      15.586  -2.298   0.000  0.00  0.00    +0.211 HD
ENDBRANCH  31  33
BRANCH  49  50
ATOM     50  O   UNL     1      11.474 -18.389   0.000  0.00  0.00    -0.504 OA
ATOM     51  H   UNL     1      10.655 -18.845   0.000  0.00  0.00    +0.292 HD
ENDBRANCH  49  50
BRANCH  41  42
ATOM     42  O   UNL     1      11.595 -16.529   0.000  0.00  0.00    -0.425 OA
BRANCH  42  43
ATOM     43  C   UNL     1      10.447 -17.495   0.000  0.00  0.00    +0.309 C 
ATOM     44  C   UNL     1       9.037 -16.984   0.000  0.00  0.00    +0.136 C 
ATOM     45  O   UNL     1      10.710 -18.971   0.000  0.00  0.00    -0.251 OA
ENDBRANCH  42  43
ENDBRANCH  41  42
TORSDOF 10