REMARK  Name = 24559
REMARK  35 active torsions:
REMARK  status: ('A' for Active; 'I' for Inactive)
REMARK    1  A    between atoms: C_1  and  C_30
REMARK    2  A    between atoms: C_2  and  O_17
REMARK    3  A    between atoms: C_6  and  O_29
REMARK    4  A    between atoms: C_7  and  O_16
REMARK    5  A    between atoms: C_12  and  O_28
REMARK    6  A    between atoms: C_13  and  C_18
REMARK    7  A    between atoms: C_18  and  C_19
REMARK    8  A    between atoms: C_18  and  O_26
REMARK    9  A    between atoms: C_19  and  C_20
REMARK   10  A    between atoms: C_20  and  C_21
REMARK   11  A    between atoms: C_20  and  O_25
REMARK   12  A    between atoms: C_21  and  C_23
REMARK   13  A    between atoms: C_21  and  O_24
REMARK   14  A    between atoms: O_26  and  C_27
REMARK   15  A    between atoms: O_28  and  C_32
REMARK   16  A    between atoms: O_29  and  C_50
REMARK   17  A    between atoms: C_34  and  C_69
REMARK   18  A    between atoms: C_35  and  O_74
REMARK   19  A    between atoms: C_36  and  O_67
REMARK   20  A    between atoms: C_38  and  O_67
REMARK   21  A    between atoms: C_40  and  C_70
REMARK   22  A    between atoms: C_41  and  O_75
REMARK   23  A    between atoms: C_42  and  O_68
REMARK   24  A    between atoms: C_44  and  O_68
REMARK   25  A    between atoms: C_46  and  C_71
REMARK   26  A    between atoms: C_47  and  O_76
REMARK   27  A    between atoms: C_48  and  C_72
REMARK   28  A    between atoms: C_48  and  O_77
REMARK   29  A    between atoms: C_52  and  C_65
REMARK   30  A    between atoms: C_53  and  O_66
REMARK   31  A    between atoms: C_54  and  O_62
REMARK   32  A    between atoms: C_56  and  O_62
REMARK   33  A    between atoms: C_58  and  C_64
REMARK   34  A    between atoms: C_59  and  O_73
REMARK   35  A    between atoms: C_60  and  O_63
REMARK                            x       y       z     vdW  Elec       q    Type
REMARK                         _______ _______ _______ _____ _____    ______ ____
ROOT
ATOM      1  C   UNL     1      11.417  -1.225   0.000  0.00  0.00    +0.033 A 
ATOM      2  C   UNL     1      10.118  -1.975   0.000  0.00  0.00    +0.051 C 
ATOM      3  C   UNL     1      11.417   0.275   0.000  0.00  0.00    +0.131 A 
ATOM     26  C   UNL     1      12.716   1.025   0.000  0.00  0.00    +0.055 A 
ATOM     27  C   UNL     1      14.015   0.275   0.000  0.00  0.00    -0.007 A 
ATOM     28  C   UNL     1      15.314   1.025   0.000  0.00  0.00    +0.013 A 
ATOM     29  C   UNL     1      16.613   0.275   0.000  0.00  0.00    -0.032 A 
ATOM     30  C   UNL     1      17.912   1.025   0.000  0.00  0.00    +0.045 C 
ATOM     31  C   UNL     1      19.211   0.275   0.000  0.00  0.00    +0.066 C 
ATOM     44  C   UNL     1      19.211  -1.225   0.000  0.00  0.00    +0.198 C 
ATOM     78  C   UNL     1      17.912  -1.975   0.000  0.00  0.00    +0.196 C 
ATOM     79  O   UNL     1      17.912  -3.475   0.000  0.00  0.00    -0.289 OA
ATOM     80  C   UNL     1      16.613  -1.225   0.000  0.00  0.00    +0.065 A 
ATOM     81  C   UNL     1      15.314  -1.975   0.000  0.00  0.00    +0.139 A 
ATOM     84  C   UNL     1      14.015  -1.225   0.000  0.00  0.00    +0.066 A 
ATOM     85  C   UNL     1      12.716  -1.975   0.000  0.00  0.00    +0.134 A 
ENDROOT
BRANCH  81  82
ATOM     82  O   UNL     1      15.314  -3.475   0.000  0.00  0.00    -0.505 OA
ATOM     83  H   UNL     1      14.503  -3.944   0.000  0.00  0.00    +0.292 HD
ENDBRANCH  81  82
BRANCH  85  86
ATOM     86  O   UNL     1      12.716  -3.475   0.000  0.00  0.00    -0.506 OA
ATOM     87  H   UNL     1      11.904  -3.944   0.000  0.00  0.00    +0.292 HD
ENDBRANCH  85  86
BRANCH   3   4
ATOM      4  O   UNL     1       7.102   2.766   0.000  0.00  0.00    -0.463 OA
BRANCH   4   5
ATOM      5  C   UNL     1       5.803   2.016   0.000  0.00  0.00    +0.310 C 
ATOM      6  C   UNL     1       5.803   0.516   0.000  0.00  0.00    +0.109 C 
ATOM      7  C   UNL     1       4.504  -0.234   0.000  0.00  0.00    +0.158 C 
ATOM     20  C   UNL     1       3.205   0.516   0.000  0.00  0.00    +0.172 C 
ATOM     23  C   UNL     1       3.205   2.016   0.000  0.00  0.00    +0.150 C 
ATOM     24  C   UNL     1       1.906   2.766   0.000  0.00  0.00    +0.041 C 
ATOM     25  O   UNL     1       4.504   2.766   0.000  0.00  0.00    -0.336 OA
BRANCH  20  21
ATOM     21  O   UNL     1       1.906  -0.234   0.000  0.00  0.00    -0.387 OA
ATOM     22  H   UNL     1       1.066   0.251   0.000  0.00  0.00    +0.210 HD
ENDBRANCH  20  21
BRANCH   7   8
ATOM      8  O   UNL     1       4.504   8.846   0.000  0.00  0.00    -0.345 OA
BRANCH   8   9
ATOM      9  C   UNL     1       3.205   9.596   0.000  0.00  0.00    +0.254 C 
ATOM     10  C   UNL     1       1.906   8.846   0.000  0.00  0.00    +0.095 C 
ATOM     11  C   UNL     1       0.607   9.596   0.000  0.00  0.00    +0.150 C 
ATOM     14  C   UNL     1       0.607  11.096   0.000  0.00  0.00    +0.172 C 
ATOM     17  C   UNL     1       1.906  11.846   0.000  0.00  0.00    +0.149 C 
ATOM     18  C   UNL     1       1.906  13.346   0.000  0.00  0.00    +0.041 C 
ATOM     19  O   UNL     1       3.205  11.096   0.000  0.00  0.00    -0.346 OA
BRANCH  11  12
ATOM     12  O   UNL     1       1.906  10.346   0.000  0.00  0.00    -0.389 OA
ATOM     13  H   UNL     1       2.746   9.861   0.000  0.00  0.00    +0.210 HD
ENDBRANCH  11  12
BRANCH  14  15
ATOM     15  O   UNL     1      -0.692  11.846   0.000  0.00  0.00    -0.387 OA
ATOM     16  H   UNL     1      -0.692  12.816   0.000  0.00  0.00    +0.210 HD
ENDBRANCH  14  15
ENDBRANCH   8   9
ENDBRANCH   7   8
ENDBRANCH   4   5
ENDBRANCH   3   4
BRANCH  31  32
ATOM     32  C   UNL     1      20.688   0.014   0.000  0.00  0.00    +0.193 C 
BRANCH  32  33
ATOM     33  O   UNL     1      21.201  -1.395   0.000  0.00  0.00    -0.372 OA
ATOM     34  C   UNL     1      22.679  -1.656   0.000  0.00  0.00    +0.194 C 
ENDBRANCH  32  33
BRANCH  32  35
ATOM     35  C   UNL     1      21.438   1.313   0.000  0.00  0.00    +0.193 C 
ATOM     36  O   UNL     1      20.688   2.612   0.000  0.00  0.00    -0.292 OA
BRANCH  35  37
ATOM     37  C   UNL     1      22.916   1.574   0.000  0.00  0.00    +0.211 C 
BRANCH  37  38
ATOM     38  O   UNL     1      23.429   2.983   0.000  0.00  0.00    -0.382 OA
ATOM     39  H   UNL     1      24.384   3.152   0.000  0.00  0.00    +0.210 HD
ENDBRANCH  37  38
BRANCH  37  40
ATOM     40  C   UNL     1      23.880   0.425   0.000  0.00  0.00    +0.147 C 
ATOM     43  C   UNL     1      25.357   0.685   0.000  0.00  0.00    +0.041 C 
BRANCH  40  41
ATOM     41  O   UNL     1      23.367  -0.985   0.000  0.00  0.00    -0.389 OA
ATOM     42  H   UNL     1      22.411  -1.153   0.000  0.00  0.00    +0.210 HD
ENDBRANCH  40  41
ENDBRANCH  37  40
ENDBRANCH  35  37
ENDBRANCH  32  35
ENDBRANCH  31  32
BRANCH  44  45
ATOM     45  O   UNL     1      20.510  -1.975   0.000  0.00  0.00    -0.340 OA
BRANCH  45  46
ATOM     46  C   UNL     1      20.250  -3.453   0.000  0.00  0.00    +0.254 C 
ATOM     47  C   UNL     1      18.840  -3.966   0.000  0.00  0.00    +0.095 C 
ATOM     48  C   UNL     1      18.580  -5.443   0.000  0.00  0.00    +0.157 C 
ATOM     72  C   UNL     1      19.729  -6.407   0.000  0.00  0.00    +0.172 C 
ATOM     75  C   UNL     1      21.138  -5.894   0.000  0.00  0.00    +0.149 C 
ATOM     76  C   UNL     1      22.287  -6.858   0.000  0.00  0.00    +0.041 C 
ATOM     77  O   UNL     1      21.399  -4.417   0.000  0.00  0.00    -0.346 OA
BRANCH  72  73
ATOM     73  O   UNL     1      19.468  -7.884   0.000  0.00  0.00    -0.387 OA
ATOM     74  H   UNL     1      18.557  -8.216   0.000  0.00  0.00    +0.210 HD
ENDBRANCH  72  73
BRANCH  48  49
ATOM     49  O   UNL     1      19.989  -4.930   0.000  0.00  0.00    -0.345 OA
BRANCH  49  50
ATOM     50  C   UNL     1      23.806  -8.132   0.000  0.00  0.00    +0.254 C 
ATOM     51  C   UNL     1      23.545  -9.610   0.000  0.00  0.00    +0.095 C 
ATOM     52  C   UNL     1      24.694 -10.574   0.000  0.00  0.00    +0.157 C 
ATOM     66  C   UNL     1      26.104 -10.061   0.000  0.00  0.00    +0.172 C 
ATOM     69  C   UNL     1      26.364  -8.584   0.000  0.00  0.00    +0.149 C 
ATOM     70  C   UNL     1      27.774  -8.070   0.000  0.00  0.00    +0.041 C 
ATOM     71  O   UNL     1      25.215  -7.619   0.000  0.00  0.00    -0.346 OA
BRANCH  66  67
ATOM     67  O   UNL     1      27.253 -11.025   0.000  0.00  0.00    -0.387 OA
ATOM     68  H   UNL     1      27.085 -11.980   0.000  0.00  0.00    +0.210 HD
ENDBRANCH  66  67
BRANCH  52  53
ATOM     53  O   UNL     1      26.271  -1.632   0.000  0.00  0.00    -0.345 OA
BRANCH  53  54
ATOM     54  C   UNL     1      30.953   0.073   0.000  0.00  0.00    +0.254 C 
ATOM     55  C   UNL     1      32.102  -0.892   0.000  0.00  0.00    +0.098 C 
ATOM     56  C   UNL     1      33.512  -0.379   0.000  0.00  0.00    +0.096 C 
ATOM     59  C   UNL     1      32.362   0.586   0.000  0.00  0.00    +0.044 C 
ATOM     60  C   UNL     1      33.772   1.099   0.000  0.00  0.00    +0.174 C 
ATOM     63  C   UNL     1      32.623   2.063   0.000  0.00  0.00    +0.149 C 
ATOM     64  C   UNL     1      32.883   3.540   0.000  0.00  0.00    +0.041 C 
ATOM     65  O   UNL     1      31.213   1.550   0.000  0.00  0.00    -0.346 OA
BRANCH  56  57
ATOM     57  O   UNL     1      34.661  -1.343   0.000  0.00  0.00    -0.386 OA
ATOM     58  H   UNL     1      34.492  -2.298   0.000  0.00  0.00    +0.210 HD
ENDBRANCH  56  57
BRANCH  60  61
ATOM     61  O   UNL     1      35.182   1.612   0.000  0.00  0.00    -0.386 OA
ATOM     62  H   UNL     1      35.925   0.988   0.000  0.00  0.00    +0.210 HD
ENDBRANCH  60  61
ENDBRANCH  53  54
ENDBRANCH  52  53
ENDBRANCH  49  50
ENDBRANCH  48  49
ENDBRANCH  45  46
ENDBRANCH  44  45
TORSDOF 26