REMARK  Name = 191384
REMARK  6 active torsions:
REMARK  status: ('A' for Active; 'I' for Inactive)
REMARK    1  A    between atoms: C_1  and  C_14
REMARK    2  A    between atoms: C_2  and  N_16
REMARK    3  A    between atoms: C_4  and  C_15
REMARK    4  A    between atoms: C_5  and  C_13
REMARK    5  A    between atoms: C_9  and  C_20
REMARK    6  A    between atoms: C_17  and  C_19
REMARK                            x       y       z     vdW  Elec       q    Type
REMARK                         _______ _______ _______ _____ _____    ______ ____
ROOT
ATOM     10  N   UNL     1       5.946  -7.500   0.000  0.00  0.00    -0.282 N 
ATOM     11  H   UNL     1       6.799  -7.992   0.000  0.00  0.00    +0.155 HD
ATOM     12  C   UNL     1       5.946  -6.000   0.000  0.00  0.00    +0.241 C 
ATOM     21  O   UNL     1       7.245  -5.250   0.000  0.00  0.00    -0.270 OA
ENDROOT
BRANCH  10   9
ATOM      1  C   UNL     1       3.348  -7.500   0.000  0.00  0.00    -0.029 A 
ATOM      2  C   UNL     1       3.348  -6.000   0.000  0.00  0.00    +0.045 C 
ATOM      3  C   UNL     1       2.049  -8.250   0.000  0.00  0.00    +0.008 A 
ATOM      4  C   UNL     1       2.049  -9.750   0.000  0.00  0.00    -0.050 A 
ATOM      5  C   UNL     1       0.750 -10.500   0.000  0.00  0.00    +0.044 C 
ATOM      6  C   UNL     1       3.348 -10.500   0.000  0.00  0.00    +0.008 A 
ATOM      7  C   UNL     1       4.647  -9.750   0.000  0.00  0.00    -0.029 A 
ATOM      8  C   UNL     1       5.946 -10.500   0.000  0.00  0.00    +0.045 C 
ATOM      9  C   UNL     1       4.647  -8.250   0.000  0.00  0.00    +0.040 A 
ENDBRANCH  10   9
BRANCH  12  13
ATOM     13  C   UNL     1       4.647  -5.250   0.000  0.00  0.00    +0.068 C 
ATOM     14  C   UNL     1       4.647  -3.750   0.000  0.00  0.00    +0.013 C 
BRANCH  14  15
ATOM     15  C   UNL     1       3.348  -3.000   0.000  0.00  0.00    -0.025 A 
ATOM     16  C   UNL     1       3.348  -1.500   0.000  0.00  0.00    +0.008 A 
ATOM     17  C   UNL     1       2.049  -0.750   0.000  0.00  0.00    +0.001 A 
ATOM     18  C   UNL     1       0.750  -1.500   0.000  0.00  0.00    +0.000 A 
ATOM     19  C   UNL     1       0.750  -3.000   0.000  0.00  0.00    +0.001 A 
ATOM     20  C   UNL     1       2.049  -3.750   0.000  0.00  0.00    +0.008 A 
ENDBRANCH  14  15
ENDBRANCH  12  13
TORSDOF 3