REMARK  Name = 689002
REMARK  1 active torsions:
REMARK  status: ('A' for Active; 'I' for Inactive)
REMARK    1  A    between atoms: C_12  and  C_18
REMARK                            x       y       z     vdW  Elec       q    Type
REMARK                         _______ _______ _______ _____ _____    ______ ____
ROOT
ATOM      1  C   UNL     1       0.750   4.500   0.000  0.00  0.00    +0.001 A 
ATOM      2  C   UNL     1       2.049   5.250   0.000  0.00  0.00    +0.013 A 
ATOM      3  C   UNL     1       3.348   4.500   0.000  0.00  0.00    +0.047 A 
ATOM      4  C   UNL     1       4.647   5.250   0.000  0.00  0.00    +0.197 C 
ATOM      5  O   UNL     1       4.647   6.750   0.000  0.00  0.00    -0.287 OA
ATOM      6  C   UNL     1       5.946   4.500   0.000  0.00  0.00    +0.048 A 
ATOM      7  C   UNL     1       7.245   5.250   0.000  0.00  0.00    +0.014 A 
ATOM      8  C   UNL     1       8.544   4.500   0.000  0.00  0.00    +0.014 A 
ATOM      9  C   UNL     1       8.544   3.000   0.000  0.00  0.00    +0.038 A 
ATOM     15  C   UNL     1       7.245   2.250   0.000  0.00  0.00    +0.041 A 
ATOM     16  C   UNL     1       5.946   3.000   0.000  0.00  0.00    +0.105 A 
ATOM     17  S   UNL     1       4.647   2.250   0.000  0.00  0.00    +0.026 S 
ATOM     18  O   UNL     1       5.611   1.101   0.000  0.00  0.00    -0.164 OA
ATOM     19  O   UNL     1       3.683   1.101   0.000  0.00  0.00    -0.164 OA
ATOM     20  C   UNL     1       3.348   3.000   0.000  0.00  0.00    +0.104 A 
ATOM     21  C   UNL     1       2.049   2.250   0.000  0.00  0.00    +0.028 A 
ATOM     22  C   UNL     1       0.750   3.000   0.000  0.00  0.00    +0.002 A 
ENDROOT
BRANCH   9  10
ATOM     10  C   UNL     1       9.843   2.250   0.000  0.00  0.00    +0.242 C 
ATOM     11  N   UNL     1      11.142   3.000   0.000  0.00  0.00    -0.325 N 
ATOM     12  H   UNL     1      11.142   3.984   0.000  0.00  0.00    +0.145 HD
ATOM     13  H   UNL     1      11.995   2.508   0.000  0.00  0.00    +0.145 HD
ATOM     14  O   UNL     1       9.843   0.750   0.000  0.00  0.00    -0.270 OA
ENDBRANCH   9  10
TORSDOF 1