REMARK  Name = 65537
REMARK  7 active torsions:
REMARK  status: ('A' for Active; 'I' for Inactive)
REMARK    1  A    between atoms: N_1  and  C_11
REMARK    2  A    between atoms: N_2  and  C_13
REMARK    3  A    between atoms: C_3  and  N_19
REMARK    4  A    between atoms: C_4  and  O_20
REMARK    5  A    between atoms: C_16  and  S_22
REMARK    6  A    between atoms: O_20  and  C_21
REMARK    7  A    between atoms: S_22  and  N_25
REMARK                            x       y       z     vdW  Elec       q    Type
REMARK                         _______ _______ _______ _____ _____    ______ ____
ROOT
ATOM      2  C   UNL     1      -7.446  -7.500   0.000  0.00  0.00    +0.097 A 
ATOM      3  C   UNL     1      -7.446  -9.000   0.000  0.00  0.00    +0.011 A 
ATOM      4  C   UNL     1      -6.147  -9.750   0.000  0.00  0.00    +0.011 A 
ATOM      5  C   UNL     1      -6.147 -11.250   0.000  0.00  0.00    +0.001 A 
ATOM      6  C   UNL     1      -7.446 -12.000   0.000  0.00  0.00    +0.001 A 
ATOM      7  C   UNL     1      -8.745 -11.250   0.000  0.00  0.00    +0.010 A 
ATOM      8  C   UNL     1      -8.745  -9.750   0.000  0.00  0.00    +0.008 A 
ATOM      9  C   UNL     1     -10.044  -9.000   0.000  0.00  0.00    +0.075 A 
ATOM     13  C   UNL     1     -10.044  -7.500   0.000  0.00  0.00    +0.143 A 
ATOM     16  C   UNL     1      -8.745  -6.750   0.000  0.00  0.00    +0.077 A 
ENDROOT
BRANCH   9  10
ATOM     10  N   UNL     1     -11.343  -9.750   0.000  0.00  0.00    -0.355 N 
ATOM     11  H   UNL     1     -11.343 -10.734   0.000  0.00  0.00    +0.142 HD
ATOM     12  H   UNL     1     -12.196  -9.258   0.000  0.00  0.00    +0.142 HD
ENDBRANCH   9  10
BRANCH   2   1
ATOM      1  N   UNL     1      -6.147  -6.750   0.000  0.00  0.00    -0.149 NA
ATOM     17  N   UNL     1      -4.848  -7.500   0.000  0.00  0.00    -0.149 NA
BRANCH  17  18
ATOM     18  C   UNL     1      -3.549  -6.750   0.000  0.00  0.00    +0.088 A 
ATOM     19  C   UNL     1      -3.549  -5.250   0.000  0.00  0.00    +0.029 A 
ATOM     20  C   UNL     1      -2.250  -4.500   0.000  0.00  0.00    +0.004 A 
ATOM     21  C   UNL     1      -0.951  -5.250   0.000  0.00  0.00    +0.028 A 
ATOM     22  C   UNL     1      -0.951  -6.750   0.000  0.00  0.00    +0.107 A 
ATOM     29  C   UNL     1      -2.250  -7.500   0.000  0.00  0.00    +0.058 A 
BRANCH  22  23
ATOM     23  S   UNL     1       0.348  -7.500   0.000  0.00  0.00    +0.056 S 
ATOM     27  O   UNL     1      -0.402  -8.799   0.000  0.00  0.00    -0.153 OA
ATOM     28  O   UNL     1       1.098  -6.201   0.000  0.00  0.00    -0.153 OA
BRANCH  23  24
ATOM     24  N   UNL     1       1.647  -8.250   0.000  0.00  0.00    -0.204 NA
ATOM     25  H   UNL     1       2.530  -7.740   0.000  0.00  0.00    +0.144 HD
ATOM     26  H   UNL     1       1.647  -9.270   0.000  0.00  0.00    +0.144 HD
ENDBRANCH  23  24
ENDBRANCH  22  23
ENDBRANCH  17  18
ENDBRANCH   2   1
BRANCH  13  14
ATOM     14  O   UNL     1     -11.343  -6.750   0.000  0.00  0.00    -0.493 OA
ATOM     15  C   UNL     1     -11.343  -5.250   0.000  0.00  0.00    +0.277 C 
ENDBRANCH  13  14
TORSDOF 6