REMARK  Name = 661122
REMARK  8 active torsions:
REMARK  status: ('A' for Active; 'I' for Inactive)
REMARK    1  A    between atoms: C_5  and  C_11
REMARK    2  A    between atoms: C_11  and  C_12
REMARK    3  A    between atoms: C_12  and  C_13
REMARK    4  A    between atoms: C_16  and  C_19
REMARK    5  A    between atoms: C_16  and  C_20
REMARK    6  A    between atoms: C_22  and  C_25
REMARK    7  A    between atoms: C_23  and  C_26
REMARK    8  A    between atoms: C_24  and  O_27
REMARK                            x       y       z     vdW  Elec       q    Type
REMARK                         _______ _______ _______ _____ _____    ______ ____
ROOT
ATOM      1  C   UNL     1      -3.316   7.757   0.000  0.00  0.00    +0.141 A 
ATOM      2  O   UNL     1      -4.615   7.007   0.000  0.00  0.00    -0.488 OA
ATOM      3  C   UNL     1      -4.615   5.507   0.000  0.00  0.00    +0.176 C 
ATOM      4  C   UNL     1      -5.914   4.757   0.000  0.00  0.00    +0.052 C 
ATOM      5  C   UNL     1      -3.316   4.757   0.000  0.00  0.00    +0.060 C 
ATOM      6  C   UNL     1      -3.316   3.257   0.000  0.00  0.00    +0.014 C 
ATOM      7  C   UNL     1      -2.017   5.507   0.000  0.00  0.00    +0.158 C 
ATOM     10  C   UNL     1      -2.017   7.007   0.000  0.00  0.00    +0.067 A 
ATOM     11  C   UNL     1      -0.718   7.757   0.000  0.00  0.00    +0.152 A 
ATOM     12  O   UNL     1       0.582   7.007   0.000  0.00  0.00    -0.422 OA
ATOM     13  C   UNL     1       1.881   7.757   0.000  0.00  0.00    +0.337 A 
ATOM     14  O   UNL     1       3.180   7.007   0.000  0.00  0.00    -0.245 OA
ATOM     15  C   UNL     1       1.881   9.257   0.000  0.00  0.00    +0.096 A 
ATOM     16  C   UNL     1       0.582  10.007   0.000  0.00  0.00    -0.026 A 
ATOM     20  C   UNL     1      -0.718   9.257   0.000  0.00  0.00    +0.064 A 
ATOM     21  C   UNL     1      -2.017  10.007   0.000  0.00  0.00    +0.143 A 
ATOM     22  O   UNL     1      -2.017  11.507   0.000  0.00  0.00    -0.481 OA
ATOM     23  C   UNL     1      -3.316  12.257   0.000  0.00  0.00    +0.124 C 
ATOM     24  C   UNL     1      -2.566  13.556   0.000  0.00  0.00    +0.060 C 
ATOM     25  C   UNL     1      -4.615  13.007   0.000  0.00  0.00    +0.060 C 
ATOM     26  C   UNL     1      -4.615  11.507   0.000  0.00  0.00    +0.020 C 
ATOM     27  C   UNL     1      -4.615  10.007   0.000  0.00  0.00    +0.015 C 
ATOM     28  C   UNL     1      -3.316   9.257   0.000  0.00  0.00    +0.059 A 
ENDROOT
BRANCH   7   8
ATOM      8  O   UNL     1      -0.718   4.757   0.000  0.00  0.00    -0.387 OA
ATOM      9  H   UNL     1      -0.718   3.787   0.000  0.00  0.00    +0.210 HD
ENDBRANCH   7   8
BRANCH  16  17
ATOM     17  C   UNL     1       0.582  11.507   0.000  0.00  0.00    +0.036 C 
BRANCH  17  18
ATOM     18  C   UNL     1       1.881  12.257   0.000  0.00  0.00    +0.001 C 
ATOM     19  C   UNL     1       1.881  13.757   0.000  0.00  0.00    +0.004 C 
ENDBRANCH  17  18
ENDBRANCH  16  17
TORSDOF 3