REMARK  Name = 679525
REMARK  10 active torsions:
REMARK  status: ('A' for Active; 'I' for Inactive)
REMARK    1  A    between atoms: C_9  and  C_15
REMARK    2  A    between atoms: N_12  and  S_19
REMARK    3  A    between atoms: C_13  and  C_29
REMARK    4  A    between atoms: C_15  and  O_17
REMARK    5  A    between atoms: O_17  and  C_18
REMARK    6  A    between atoms: C_18  and  C_33
REMARK    7  A    between atoms: S_19  and  C_22
REMARK    8  A    between atoms: C_25  and  C_28
REMARK    9  A    between atoms: C_29  and  O_31
REMARK   10  A    between atoms: O_31  and  C_32
REMARK                            x       y       z     vdW  Elec       q    Type
REMARK                         _______ _______ _______ _____ _____    ______ ____
ROOT
ATOM      1  C   UNL     1      -7.810  -7.510   0.000  0.00  0.00    +0.124 A 
ATOM      2  N   UNL     1      -6.928  -6.297   0.000  0.00  0.00    -0.200 N 
ATOM     13  C   UNL     1      -7.810  -5.083   0.000  0.00  0.00    +0.150 A 
ATOM     18  C   UNL     1      -9.237  -5.547   0.000  0.00  0.00    +0.045 A 
ATOM     19  C   UNL     1      -9.237  -7.047   0.000  0.00  0.00    +0.016 A 
ATOM     20  C   UNL     1     -10.351  -8.050   0.000  0.00  0.00    +0.027 A 
ATOM     21  C   UNL     1     -11.843  -7.893   0.000  0.00  0.00    +0.085 A 
ATOM     32  C   UNL     1     -12.453  -9.264   0.000  0.00  0.00    +0.098 A 
ATOM     33  N   UNL     1     -11.339 -10.267   0.000  0.00  0.00    -0.357 N 
ATOM     34  H   UNL     1     -11.442 -11.247   0.000  0.00  0.00    +0.165 HD
ATOM     35  C   UNL     1     -10.040  -9.517   0.000  0.00  0.00    +0.099 A 
ATOM     36  C   UNL     1      -8.613  -9.981   0.000  0.00  0.00    +0.251 A 
ATOM     37  O   UNL     1      -8.301 -11.448   0.000  0.00  0.00    -0.282 OA
ATOM     38  C   UNL     1      -7.498  -8.977   0.000  0.00  0.00    +0.253 A 
ATOM     39  O   UNL     1      -6.072  -9.441   0.000  0.00  0.00    -0.281 OA
ENDROOT
BRANCH   2   3
ATOM      3  S   UNL     1      -5.428  -6.297   0.000  0.00  0.00    +0.085 S 
ATOM     11  O   UNL     1      -5.428  -4.797   0.000  0.00  0.00    -0.148 OA
ATOM     12  O   UNL     1      -5.428  -7.797   0.000  0.00  0.00    -0.148 OA
BRANCH   3   4
ATOM      4  C   UNL     1      -3.928  -6.297   0.000  0.00  0.00    +0.111 A 
ATOM      5  C   UNL     1      -3.178  -4.997   0.000  0.00  0.00    +0.029 A 
ATOM      6  C   UNL     1      -1.678  -4.997   0.000  0.00  0.00    +0.005 A 
ATOM      7  C   UNL     1      -0.928  -6.297   0.000  0.00  0.00    -0.050 A 
ATOM      8  C   UNL     1       0.572  -6.297   0.000  0.00  0.00    +0.044 C 
ATOM      9  C   UNL     1      -1.678  -7.596   0.000  0.00  0.00    +0.005 A 
ATOM     10  C   UNL     1      -3.178  -7.596   0.000  0.00  0.00    +0.029 A 
ENDBRANCH   3   4
ENDBRANCH   2   3
BRANCH  13  14
ATOM     14  C   UNL     1      -7.347  -3.656   0.000  0.00  0.00    +0.357 C 
ATOM     17  O   UNL     1      -5.879  -3.345   0.000  0.00  0.00    -0.243 OA
BRANCH  14  15
ATOM     15  O   UNL     1      -8.350  -2.542   0.000  0.00  0.00    -0.463 OA
ATOM     16  C   UNL     1      -9.818  -2.853   0.000  0.00  0.00    +0.280 C 
ENDBRANCH  14  15
ENDBRANCH  13  14
BRANCH  21  22
ATOM     22  C   UNL     1     -12.593  -6.594   0.000  0.00  0.00    +0.342 C 
ATOM     31  O   UNL     1     -11.843  -5.295   0.000  0.00  0.00    -0.245 OA
BRANCH  22  23
ATOM     23  O   UNL     1     -14.093  -6.594   0.000  0.00  0.00    -0.456 OA
BRANCH  23  24
ATOM     24  C   UNL     1     -14.843  -7.893   0.000  0.00  0.00    +0.268 C 
BRANCH  24  25
ATOM     25  C   UNL     1     -16.343  -7.893   0.000  0.00  0.00    -0.010 A 
ATOM     26  C   UNL     1     -17.093  -6.594   0.000  0.00  0.00    +0.007 A 
ATOM     27  C   UNL     1     -18.593  -6.594   0.000  0.00  0.00    +0.000 A 
ATOM     28  C   UNL     1     -19.343  -7.893   0.000  0.00  0.00    +0.000 A 
ATOM     29  C   UNL     1     -18.593  -9.192   0.000  0.00  0.00    +0.000 A 
ATOM     30  C   UNL     1     -17.093  -9.192   0.000  0.00  0.00    +0.007 A 
ENDBRANCH  24  25
ENDBRANCH  23  24
ENDBRANCH  22  23
ENDBRANCH  21  22
TORSDOF 8