REMARK  Name = 65689
REMARK  7 active torsions:
REMARK  status: ('A' for Active; 'I' for Inactive)
REMARK    1  A    between atoms: O_1  and  C_2
REMARK    2  A    between atoms: O_1  and  C_20
REMARK    3  A    between atoms: C_3  and  O_21
REMARK    4  A    between atoms: O_8  and  C_9
REMARK    5  A    between atoms: O_8  and  C_22
REMARK    6  A    between atoms: C_14  and  O_23
REMARK    7  A    between atoms: N_15  and  C_24
REMARK                            x       y       z     vdW  Elec       q    Type
REMARK                         _______ _______ _______ _____ _____    ______ ____
ROOT
ATOM      3  C   UNL     1       3.348   4.500   0.000  0.00  0.00    +0.162 A 
ATOM      4  C   UNL     1       3.348   3.000   0.000  0.00  0.00    +0.159 A 
ATOM      7  C   UNL     1       4.647   2.250   0.000  0.00  0.00    +0.053 A 
ATOM      8  C   UNL     1       5.946   3.000   0.000  0.00  0.00    -0.034 A 
ATOM      9  C   UNL     1       7.245   2.250   0.000  0.00  0.00    +0.059 C 
ATOM     10  C   UNL     1       8.544   3.000   0.000  0.00  0.00    +0.092 C 
ATOM     11  N   UNL     1       9.843   2.250   0.000  0.00  0.00    -0.298 NA
ATOM     12  C   UNL     1       9.843   0.750   0.000  0.00  0.00    +0.105 C 
ATOM     13  C   UNL     1      11.142   3.000   0.000  0.00  0.00    +0.089 C 
ATOM     14  C   UNL     1      11.142   4.500   0.000  0.00  0.00    +0.051 C 
ATOM     15  C   UNL     1       9.843   5.250   0.000  0.00  0.00    -0.037 A 
ATOM     16  C   UNL     1       9.843   6.750   0.000  0.00  0.00    +0.053 A 
ATOM     17  C   UNL     1       8.544   7.500   0.000  0.00  0.00    +0.159 A 
ATOM     20  C   UNL     1       7.245   6.750   0.000  0.00  0.00    +0.169 A 
ATOM     21  C   UNL     1       7.245   5.250   0.000  0.00  0.00    +0.033 A 
ATOM     24  C   UNL     1       8.544   4.500   0.000  0.00  0.00    -0.015 A 
ATOM     25  C   UNL     1       5.946   4.500   0.000  0.00  0.00    -0.007 A 
ATOM     26  C   UNL     1       4.647   5.250   0.000  0.00  0.00    +0.058 A 
ENDROOT
BRANCH   3   1
ATOM      1  O   UNL     1       2.049   5.250   0.000  0.00  0.00    -0.491 OA
ATOM      2  C   UNL     1       0.750   4.500   0.000  0.00  0.00    +0.277 C 
ENDBRANCH   3   1
BRANCH   4   5
ATOM      5  O   UNL     1       2.049   2.250   0.000  0.00  0.00    -0.503 OA
ATOM      6  H   UNL     1       1.238   2.719   0.000  0.00  0.00    +0.292 HD
ENDBRANCH   4   5
BRANCH  17  18
ATOM     18  O   UNL     1       8.544   9.000   0.000  0.00  0.00    -0.503 OA
ATOM     19  H   UNL     1       9.356   9.469   0.000  0.00  0.00    +0.292 HD
ENDBRANCH  17  18
BRANCH  20  22
ATOM     22  O   UNL     1       5.946   7.500   0.000  0.00  0.00    -0.491 OA
ATOM     23  C   UNL     1       4.647   6.750   0.000  0.00  0.00    +0.277 C 
ENDBRANCH  20  22
TORSDOF 4