REMARK  Name = 664971
REMARK  1 active torsions:
REMARK  status: ('A' for Active; 'I' for Inactive)
REMARK    1  A    between atoms: N_9  and  C_12
REMARK                            x       y       z     vdW  Elec       q    Type
REMARK                         _______ _______ _______ _____ _____    ______ ____
ROOT
ATOM      1  C   UNL     1      -0.750   2.799   0.000  0.00  0.00    +0.255 C 
ATOM      2  O   UNL     1       0.254   3.914   0.000  0.00  0.00    -0.464 OA
ATOM      3  C   UNL     1       1.624   3.304   0.000  0.00  0.00    +0.281 C 
ATOM      4  N   UNL     1       2.923   4.054   0.000  0.00  0.00    -0.283 N 
ATOM      5  C   UNL     1       4.222   3.304   0.000  0.00  0.00    +0.125 C 
ATOM      6  C   UNL     1       5.521   4.054   0.000  0.00  0.00    +0.103 C 
ATOM      7  N   UNL     1       5.521   5.554   0.000  0.00  0.00    -0.302 NA
ATOM      8  C   UNL     1       6.820   6.304   0.000  0.00  0.00    +0.105 C 
ATOM      9  C   UNL     1       4.222   6.304   0.000  0.00  0.00    +0.103 C 
ATOM     10  C   UNL     1       2.923   5.554   0.000  0.00  0.00    +0.125 C 
ATOM     11  N   UNL     1       1.467   1.812   0.000  0.00  0.00    -0.233 NA
ATOM     12  C   UNL     1       0.000   1.500   0.000  0.00  0.00    +0.187 C 
ENDROOT
TORSDOF 0