REMARK  Name = 66837
REMARK  8 active torsions:
REMARK  status: ('A' for Active; 'I' for Inactive)
REMARK    1  A    between atoms: C_6  and  C_11
REMARK    2  A    between atoms: C_7  and  O_16
REMARK    3  A    between atoms: C_8  and  S_9
REMARK    4  A    between atoms: S_9  and  C_10
REMARK    5  A    between atoms: C_11  and  C_12
REMARK    6  A    between atoms: C_12  and  O_13
REMARK    7  A    between atoms: O_13  and  C_14
REMARK    8  A    between atoms: C_14  and  C_15
REMARK                            x       y       z     vdW  Elec       q    Type
REMARK                         _______ _______ _______ _____ _____    ______ ____
ROOT
ATOM      1  N   UNL     1      -9.843  -3.000   0.000  0.00  0.00    -0.185 NA
ATOM      2  C   UNL     1      -8.544  -2.250   0.000  0.00  0.00    +0.281 A 
ATOM      3  C   UNL     1      -7.245  -3.000   0.000  0.00  0.00    +0.080 A 
ATOM      9  C   UNL     1      -7.245  -4.500   0.000  0.00  0.00    +0.201 A 
ATOM     12  N   UNL     1      -8.544  -5.250   0.000  0.00  0.00    -0.305 N 
ATOM     13  H   UNL     1      -8.544  -6.750   0.000  0.00  0.00    +0.171 HD
ATOM     14  O   UNL     1      -8.544  -0.750   0.000  0.00  0.00    -0.265 OA
ATOM     15  C   UNL     1      -9.843  -4.500   0.000  0.00  0.00    +0.172 A 
ENDROOT
BRANCH   9  10
ATOM     10  O   UNL     1      -5.946  -5.250   0.000  0.00  0.00    -0.493 OA
ATOM     11  H   UNL     1      -5.946  -6.187   0.000  0.00  0.00    +0.294 HD
ENDBRANCH   9  10
BRANCH  15  16
ATOM     16  S   UNL     1     -11.142  -5.250   0.000  0.00  0.00    -0.091 S 
ATOM     17  C   UNL     1     -12.441  -4.500   0.000  0.00  0.00    +0.093 C 
ENDBRANCH  15  16
BRANCH   3   4
ATOM      4  C   UNL     1      -5.946  -2.250   0.000  0.00  0.00    +0.074 C 
BRANCH   4   5
ATOM      5  C   UNL     1      -4.647  -3.000   0.000  0.00  0.00    +0.165 C 
BRANCH   5   6
ATOM      6  O   UNL     1      -3.348  -2.250   0.000  0.00  0.00    -0.380 OA
BRANCH   6   7
ATOM      7  C   UNL     1      -2.049  -3.000   0.000  0.00  0.00    +0.156 C 
ATOM      8  C   UNL     1      -0.750  -2.250   0.000  0.00  0.00    +0.034 C 
ENDBRANCH   6   7
ENDBRANCH   5   6
ENDBRANCH   4   5
ENDBRANCH   3   4
TORSDOF 6