REMARK  Name = 68116
REMARK  5 active torsions:
REMARK  status: ('A' for Active; 'I' for Inactive)
REMARK    1  A    between atoms: P_2  and  N_12
REMARK    2  A    between atoms: N_12  and  C_13
REMARK    3  A    between atoms: N_12  and  C_18
REMARK    4  A    between atoms: C_13  and  C_14
REMARK    5  A    between atoms: C_17  and  C_18
REMARK                            x       y       z     vdW  Elec       q    Type
REMARK                         _______ _______ _______ _____ _____    ______ ____
ROOT
ATOM      1  N   UNL     1      -3.348   3.000   0.000  0.00  0.00    -0.216 NA
ATOM      2  C   UNL     1      -3.348   1.500   0.000  0.00  0.00    +0.069 C 
ATOM      3  C   UNL     1      -2.049   0.750   0.000  0.00  0.00    +0.048 C 
ATOM      4  C   UNL     1      -0.750   1.500   0.000  0.00  0.00    +0.172 C 
ATOM      5  O   UNL     1      -0.750   3.000   0.000  0.00  0.00    -0.305 OA
ATOM      6  C   UNL     1      -4.647   0.750   0.000  0.00  0.00    +0.019 C 
ATOM      7  C   UNL     1      -5.946   1.500   0.000  0.00  0.00    +0.003 C 
ATOM      8  C   UNL     1      -5.946   3.000   0.000  0.00  0.00    +0.016 C 
ATOM      9  C   UNL     1      -4.647   3.750   0.000  0.00  0.00    +0.095 C 
ATOM     10  P   UNL     1      -2.049   3.750   0.000  0.00  0.00    +0.349 P 
ATOM     18  O   UNL     1      -1.085   4.899   0.000  0.00  0.00    -0.254 OA
ENDROOT
BRANCH  10  11
ATOM     11  N   UNL     1      -3.013   4.899   0.000  0.00  0.00    -0.217 NA
BRANCH  11  12
ATOM     12  C   UNL     1      -4.490   4.639   0.000  0.00  0.00    +0.111 C 
BRANCH  12  13
ATOM     13  C   UNL     1      -5.455   5.788   0.000  0.00  0.00    +0.124 C 
ATOM     14 CL   UNL     1      -6.932   5.527   0.000  0.00  0.00    -0.124 Cl
ENDBRANCH  12  13
ENDBRANCH  11  12
BRANCH  11  15
ATOM     15  C   UNL     1      -2.500   6.309   0.000  0.00  0.00    +0.111 C 
BRANCH  15  16
ATOM     16  C   UNL     1      -1.023   6.569   0.000  0.00  0.00    +0.124 C 
ATOM     17 CL   UNL     1      -0.510   7.979   0.000  0.00  0.00    -0.124 Cl
ENDBRANCH  15  16
ENDBRANCH  11  15
ENDBRANCH  10  11
TORSDOF 5