REMARK  Name = 70717
REMARK  1 active torsions:
REMARK  status: ('A' for Active; 'I' for Inactive)
REMARK    1  A    between atoms: C_6  and  C_12
REMARK                            x       y       z     vdW  Elec       q    Type
REMARK                         _______ _______ _______ _____ _____    ______ ____
ROOT
ATOM      1  N   UNL     1       4.272  -0.101   0.000  0.00  0.00    -0.278 N 
ATOM      2  C   UNL     1       5.699  -0.564   0.000  0.00  0.00    +0.180 A 
ATOM      3  S   UNL     1       6.162  -1.991   0.000  0.00  0.00    -0.011 S 
ATOM      4  N   UNL     1       6.580   0.649   0.000  0.00  0.00    -0.254 N 
ATOM      5  H   UNL     1       8.080   0.649   0.000  0.00  0.00    +0.191 HD
ATOM      6  N   UNL     1       5.699   1.863   0.000  0.00  0.00    -0.153 NA
ATOM      7  C   UNL     1       2.973  -0.851   0.000  0.00  0.00    +0.095 A 
ATOM      8  C   UNL     1       1.674  -0.101   0.000  0.00  0.00    +0.018 A 
ATOM      9  C   UNL     1       1.674   1.400   0.000  0.00  0.00    +0.008 A 
ATOM     10  C   UNL     1       2.973   2.150   0.000  0.00  0.00    -0.006 A 
ATOM     11  C   UNL     1       2.973   3.650   0.000  0.00  0.00    +0.047 C 
ATOM     12  C   UNL     1       4.272   1.400   0.000  0.00  0.00    +0.162 A 
ENDROOT
TORSDOF 0