REMARK  Name = 70799
REMARK  8 active torsions:
REMARK  status: ('A' for Active; 'I' for Inactive)
REMARK    1  A    between atoms: C_5  and  C_28
REMARK    2  A    between atoms: C_7  and  C_27
REMARK    3  A    between atoms: C_9  and  C_24
REMARK    4  A    between atoms: C_9  and  O_26
REMARK    5  A    between atoms: C_14  and  C_25
REMARK    6  A    between atoms: N_22  and  O_23
REMARK    7  A    between atoms: C_28  and  C_29
REMARK    8  A    between atoms: N_30  and  O_31
REMARK                            x       y       z     vdW  Elec       q    Type
REMARK                         _______ _______ _______ _____ _____    ______ ____
ROOT
ATOM      1  C   UNL     1      -7.220  -9.741   0.000  0.00  0.00    +0.001 C 
ATOM      2  C   UNL     1      -8.519 -10.491   0.000  0.00  0.00    +0.058 C 
ATOM      3  C   UNL     1      -9.818  -9.741   0.000  0.00  0.00    +0.058 C 
ATOM      4  N   UNL     1     -11.118 -10.491   0.000  0.00  0.00    -0.097 NA
ATOM      7  C   UNL     1      -9.818  -8.241   0.000  0.00  0.00    +0.055 C 
ATOM      8  C   UNL     1      -8.519  -7.490   0.000  0.00  0.00    +0.013 C 
ATOM      9  C   UNL     1      -5.921 -10.490   0.000  0.00  0.00    +0.005 C 
ATOM     10  C   UNL     1      -4.622  -9.740   0.000  0.00  0.00    +0.004 C 
ATOM     11  C   UNL     1      -4.622  -8.240   0.000  0.00  0.00    -0.001 C 
ATOM     12  C   UNL     1      -5.921  -7.490   0.000  0.00  0.00    +0.030 C 
ATOM     13  C   UNL     1      -5.921  -5.990   0.000  0.00  0.00    +0.067 C 
ATOM     16  C   UNL     1      -7.421  -5.990   0.000  0.00  0.00    +0.041 C 
ATOM     17  C   UNL     1      -4.622  -5.240   0.000  0.00  0.00    +0.042 C 
ATOM     18  C   UNL     1      -3.323  -5.990   0.000  0.00  0.00    -0.018 C 
ATOM     19  C   UNL     1      -3.167  -4.499   0.000  0.00  0.00    +0.012 C 
ATOM     20  C   UNL     1      -1.897  -5.527   0.000  0.00  0.00    +0.043 C 
ATOM     26  C   UNL     1      -1.015  -6.740   0.000  0.00  0.00    +0.010 C 
ATOM     27  C   UNL     1      -1.897  -7.954   0.000  0.00  0.00    +0.005 C 
ATOM     28  C   UNL     1      -3.323  -7.490   0.000  0.00  0.00    -0.001 C 
ATOM     29  C   UNL     1      -7.220  -8.241   0.000  0.00  0.00    -0.023 C 
ATOM     30  C   UNL     1      -7.220  -6.740   0.000  0.00  0.00    +0.012 C 
ENDROOT
BRANCH  20  21
ATOM     21  C   UNL     1      -1.433  -4.100   0.000  0.00  0.00    +0.058 C 
ATOM     22  N   UNL     1       0.034  -3.789   0.000  0.00  0.00    -0.097 NA
ATOM     25  C   UNL     1      -2.437  -2.986   0.000  0.00  0.00    +0.064 C 
BRANCH  22  23
ATOM     23  O   UNL     1       0.498  -2.362   0.000  0.00  0.00    -0.409 OA
ATOM     24  H   UNL     1       1.414  -2.167   0.000  0.00  0.00    +0.328 HD
ENDBRANCH  22  23
ENDBRANCH  20  21
BRANCH   4   5
ATOM      5  O   UNL     1     -12.416  -9.740   0.000  0.00  0.00    -0.409 OA
ATOM      6  H   UNL     1     -12.416  -8.803   0.000  0.00  0.00    +0.328 HD
ENDBRANCH   4   5
BRANCH  13  14
ATOM     14  O   UNL     1      -6.434  -4.581   0.000  0.00  0.00    -0.389 OA
ATOM     15  H   UNL     1      -5.811  -3.838   0.000  0.00  0.00    +0.210 HD
ENDBRANCH  13  14
TORSDOF 4