REMARK  Name = 68841
REMARK  5 active torsions:
REMARK  status: ('A' for Active; 'I' for Inactive)
REMARK    1  A    between atoms: C_1  and  C_11
REMARK    2  A    between atoms: C_3  and  C_12
REMARK    3  A    between atoms: C_3  and  O_14
REMARK    4  A    between atoms: C_5  and  N_13
REMARK    5  A    between atoms: C_10  and  C_15
REMARK                            x       y       z     vdW  Elec       q    Type
REMARK                         _______ _______ _______ _____ _____    ______ ____
ROOT
ATOM      4  C   UNL     1       5.250   3.348   0.000  0.00  0.00    +0.034 A 
ATOM      5  C   UNL     1       6.000   2.049   0.000  0.00  0.00    +0.024 A 
ATOM      6  C   UNL     1       7.500   2.049   0.000  0.00  0.00    +0.010 A 
ATOM      7  C   UNL     1       8.250   3.348   0.000  0.00  0.00    -0.018 A 
ATOM     14  C   UNL     1       7.500   4.647   0.000  0.00  0.00    +0.010 A 
ATOM     15  C   UNL     1       6.000   4.647   0.000  0.00  0.00    +0.024 A 
ENDROOT
BRANCH   7   8
ATOM      8  C   UNL     1       9.750   3.348   0.000  0.00  0.00    -0.018 A 
ATOM      9  C   UNL     1      10.500   2.049   0.000  0.00  0.00    +0.008 A 
ATOM     10  C   UNL     1      12.000   2.049   0.000  0.00  0.00    +0.001 A 
ATOM     11  C   UNL     1      12.750   3.348   0.000  0.00  0.00    +0.000 A 
ATOM     12  C   UNL     1      12.000   4.647   0.000  0.00  0.00    +0.001 A 
ATOM     13  C   UNL     1      10.500   4.647   0.000  0.00  0.00    +0.008 A 
ENDBRANCH   7   8
BRANCH   4   2
ATOM      1  C   UNL     1       3.000   4.647   0.000  0.00  0.00    +0.241 C 
ATOM      2  N   UNL     1       3.750   3.348   0.000  0.00  0.00    -0.282 N 
ATOM      3  H   UNL     1       3.258   2.495   0.000  0.00  0.00    +0.155 HD
ATOM     22  O   UNL     1       3.750   5.946   0.000  0.00  0.00    -0.270 OA
BRANCH   1  16
ATOM     16  C   UNL     1       1.500   4.647   0.000  0.00  0.00    +0.074 C 
ATOM     17  C   UNL     1       0.750   3.348   0.000  0.00  0.00    +0.096 C 
BRANCH  17  18
ATOM     18  C   UNL     1       1.500   2.049   0.000  0.00  0.00    +0.330 C 
ATOM     21  O   UNL     1       0.750   0.750   0.000  0.00  0.00    -0.246 OA
BRANCH  18  19
ATOM     19  O   UNL     1       3.000   2.049   0.000  0.00  0.00    -0.478 OA
ATOM     20  H   UNL     1       3.469   1.238   0.000  0.00  0.00    +0.295 HD
ENDBRANCH  18  19
ENDBRANCH  17  18
ENDBRANCH   1  16
ENDBRANCH   4   2
TORSDOF 5