REMARK  Name = 67307
REMARK  4 active torsions:
REMARK  status: ('A' for Active; 'I' for Inactive)
REMARK    1  A    between atoms: C_5  and  C_9
REMARK    2  A    between atoms: C_8  and  S_10
REMARK    3  A    between atoms: S_10  and  C_11
REMARK    4  A    between atoms: C_11  and  C_12
REMARK                            x       y       z     vdW  Elec       q    Type
REMARK                         _______ _______ _______ _____ _____    ______ ____
ROOT
ATOM      1  H   UNL     1      -5.946  -0.750   0.000  0.00  0.00    +0.167 HD
ATOM      2  N   UNL     1      -5.946  -2.250   0.000  0.00  0.00    -0.338 N 
ATOM      3  C   UNL     1      -4.647  -3.000   0.000  0.00  0.00    +0.167 A 
ATOM      7  N   UNL     1      -4.647  -4.500   0.000  0.00  0.00    -0.216 NA
ATOM      8  C   UNL     1      -5.946  -5.250   0.000  0.00  0.00    +0.112 A 
ATOM      9  C   UNL     1      -7.245  -4.500   0.000  0.00  0.00    +0.056 A 
ATOM     10  S   UNL     1      -5.946  -6.750   0.000  0.00  0.00    -0.031 S 
ATOM     11  C   UNL     1      -7.245  -3.000   0.000  0.00  0.00    +0.017 A 
ATOM     12  C   UNL     1      -8.544  -2.250   0.000  0.00  0.00    +0.063 C 
ENDROOT
BRANCH   3   4
ATOM      4  S   UNL     1      -3.348  -2.250   0.000  0.00  0.00    -0.088 S 
BRANCH   4   5
ATOM      5  C   UNL     1      -2.049  -3.000   0.000  0.00  0.00    +0.074 C 
ATOM      6  C   UNL     1      -0.750  -2.250   0.000  0.00  0.00    +0.016 C 
ENDBRANCH   4   5
ENDBRANCH   3   4
TORSDOF 2