REMARK  Name = 66122
REMARK  4 active torsions:
REMARK  status: ('A' for Active; 'I' for Inactive)
REMARK    1  A    between atoms: C_5  and  C_22
REMARK    2  A    between atoms: C_9  and  C_21
REMARK    3  A    between atoms: C_12  and  C_20
REMARK    4  A    between atoms: C_14  and  C_19
REMARK                            x       y       z     vdW  Elec       q    Type
REMARK                         _______ _______ _______ _____ _____    ______ ____
ROOT
ATOM      1  N   UNL     1       8.648   2.859   0.000  0.00  0.00    -0.149 NA
ATOM      2  C   UNL     1       9.947   3.609   0.000  0.00  0.00    +0.086 A 
ATOM     11  C   UNL     1       9.947   5.109   0.000  0.00  0.00    +0.032 A 
ATOM     12  C   UNL     1       8.648   5.859   0.000  0.00  0.00    +0.032 A 
ATOM     13  C   UNL     1       7.348   5.109   0.000  0.00  0.00    +0.086 A 
ATOM     22  N   UNL     1       7.348   3.609   0.000  0.00  0.00    -0.149 NA
ENDROOT
BRANCH   2   3
ATOM      3  C   UNL     1      11.246   2.859   0.000  0.00  0.00    +0.030 C 
ATOM      4  C   UNL     1      11.246   1.359   0.000  0.00  0.00    +0.010 C 
BRANCH   4   5
ATOM      5  C   UNL     1      12.545   0.609   0.000  0.00  0.00    -0.025 A 
ATOM      6  C   UNL     1      13.844   1.359   0.000  0.00  0.00    +0.008 A 
ATOM      7  C   UNL     1      15.143   0.609   0.000  0.00  0.00    +0.001 A 
ATOM      8  C   UNL     1      15.143  -0.891   0.000  0.00  0.00    +0.000 A 
ATOM      9  C   UNL     1      13.844  -1.641   0.000  0.00  0.00    +0.001 A 
ATOM     10  C   UNL     1      12.545  -0.891   0.000  0.00  0.00    +0.008 A 
ENDBRANCH   4   5
ENDBRANCH   2   3
BRANCH  13  14
ATOM     14  C   UNL     1       6.050   5.859   0.000  0.00  0.00    +0.030 C 
ATOM     15  C   UNL     1       6.050   7.359   0.000  0.00  0.00    +0.010 C 
BRANCH  15  16
ATOM     16  C   UNL     1       4.750   8.109   0.000  0.00  0.00    -0.025 A 
ATOM     17  C   UNL     1       4.750   9.609   0.000  0.00  0.00    +0.008 A 
ATOM     18  C   UNL     1       3.451  10.359   0.000  0.00  0.00    +0.001 A 
ATOM     19  C   UNL     1       2.152   9.609   0.000  0.00  0.00    +0.000 A 
ATOM     20  C   UNL     1       2.152   8.109   0.000  0.00  0.00    +0.001 A 
ATOM     21  C   UNL     1       3.451   7.359   0.000  0.00  0.00    +0.008 A 
ENDBRANCH  15  16
ENDBRANCH  13  14
TORSDOF 4