REMARK  Name = 670283
REMARK  0 active torsions:
REMARK  status: ('A' for Active; 'I' for Inactive)
REMARK                            x       y       z     vdW  Elec       q    Type
REMARK                         _______ _______ _______ _____ _____    ______ ____
ROOT
ATOM      1  C   UNL     1       0.750   3.000   0.000  0.00  0.00    +0.080 C 
ATOM      2  C   UNL     1       2.049   3.750   0.000  0.00  0.00    +0.163 C 
ATOM      3  O   UNL     1       2.049   5.250   0.000  0.00  0.00    -0.292 OA
ATOM      4  C   UNL     1       3.348   3.000   0.000  0.00  0.00    +0.021 A 
ATOM      5  C   UNL     1       4.647   3.750   0.000  0.00  0.00    +0.015 A 
ATOM      6  C   UNL     1       5.946   3.000   0.000  0.00  0.00    -0.043 A 
ATOM      7  C   UNL     1       7.373   3.463   0.000  0.00  0.00    +0.043 C 
ATOM      8  C   UNL     1       8.254   2.250   0.000  0.00  0.00    -0.013 C 
ATOM      9  C   UNL     1       9.136   3.463   0.000  0.00  0.00    +0.043 C 
ATOM     10  C   UNL     1      10.563   3.000   0.000  0.00  0.00    -0.043 A 
ATOM     11  C   UNL     1      11.862   3.750   0.000  0.00  0.00    +0.015 A 
ATOM     12  C   UNL     1      13.161   3.000   0.000  0.00  0.00    +0.021 A 
ATOM     13  C   UNL     1      14.460   3.750   0.000  0.00  0.00    +0.163 C 
ATOM     14  O   UNL     1      14.460   5.250   0.000  0.00  0.00    -0.292 OA
ATOM     15  C   UNL     1      15.759   3.000   0.000  0.00  0.00    +0.080 C 
ATOM     16  C   UNL     1      15.759   1.500   0.000  0.00  0.00    +0.012 C 
ATOM     17  C   UNL     1      14.460   0.750   0.000  0.00  0.00    +0.036 C 
ATOM     18  C   UNL     1      13.161   1.500   0.000  0.00  0.00    -0.037 A 
ATOM     19  C   UNL     1      11.862   0.750   0.000  0.00  0.00    +0.008 A 
ATOM     20  C   UNL     1      10.563   1.500   0.000  0.00  0.00    -0.043 A 
ATOM     21  C   UNL     1       9.136   1.037   0.000  0.00  0.00    +0.043 C 
ATOM     22  C   UNL     1       7.373   1.037   0.000  0.00  0.00    +0.043 C 
ATOM     23  C   UNL     1       5.946   1.500   0.000  0.00  0.00    -0.043 A 
ATOM     24  C   UNL     1       4.647   0.750   0.000  0.00  0.00    +0.008 A 
ATOM     25  C   UNL     1       3.348   1.500   0.000  0.00  0.00    -0.037 A 
ATOM     26  C   UNL     1       2.049   0.750   0.000  0.00  0.00    +0.036 C 
ATOM     27  C   UNL     1       0.750   1.500   0.000  0.00  0.00    +0.012 C 
ENDROOT
TORSDOF 0