REMARK  Name = 70534
REMARK  2 active torsions:
REMARK  status: ('A' for Active; 'I' for Inactive)
REMARK    1  A    between atoms: C_6  and  N_18
REMARK    2  A    between atoms: C_14  and  N_17
REMARK                            x       y       z     vdW  Elec       q    Type
REMARK                         _______ _______ _______ _____ _____    ______ ____
ROOT
ATOM      1  O   UNL     1       4.302   5.865   0.000  0.00  0.00    -0.595 OA
ATOM      2  N   UNL     1       5.237   4.692   0.000  0.00  0.00    -0.048 N 
ATOM      3  C   UNL     1       4.587   3.341   0.000  0.00  0.00    +0.252 A 
ATOM      4  C   UNL     1       3.091   3.453   0.000  0.00  0.00    +0.105 A 
ATOM      5  C   UNL     1       2.246   2.213   0.000  0.00  0.00    +0.031 A 
ATOM      9  C   UNL     1       2.897   0.862   0.000  0.00  0.00    +0.023 A 
ATOM     10  C   UNL     1       4.392   0.750   0.000  0.00  0.00    +0.012 A 
ATOM     11  C   UNL     1       5.237   1.989   0.000  0.00  0.00    +0.032 A 
ATOM     12  C   UNL     1       6.700   1.656   0.000  0.00  0.00    +0.079 C 
ATOM     13  C   UNL     1       7.873   2.591   0.000  0.00  0.00    -0.012 A 
ATOM     14  C   UNL     1       9.172   1.841   0.000  0.00  0.00    +0.008 A 
ATOM     15  C   UNL     1      10.471   2.591   0.000  0.00  0.00    +0.023 A 
ATOM     16  C   UNL     1      10.471   4.091   0.000  0.00  0.00    +0.027 A 
ATOM     20  C   UNL     1       9.172   4.841   0.000  0.00  0.00    +0.056 A 
ATOM     21  C   UNL     1       7.873   4.091   0.000  0.00  0.00    +0.137 A 
ATOM     22  N   UNL     1       6.700   5.026   0.000  0.00  0.00    +0.016 NA
ENDROOT
BRANCH   5   6
ATOM      6  N   UNL     1       0.750   2.326   0.000  0.00  0.00    -0.358 N 
ATOM      7  H   UNL     1       0.195   1.512   0.000  0.00  0.00    +0.142 HD
ATOM      8  H   UNL     1       0.323   3.213   0.000  0.00  0.00    +0.142 HD
ENDBRANCH   5   6
BRANCH  16  17
ATOM     17  N   UNL     1      11.770   4.841   0.000  0.00  0.00    -0.358 N 
ATOM     18  H   UNL     1      11.770   5.825   0.000  0.00  0.00    +0.142 HD
ATOM     19  H   UNL     1      12.622   4.349   0.000  0.00  0.00    +0.142 HD
ENDBRANCH  16  17
TORSDOF 2