REMARK  Name = 6821
REMARK  4 active torsions:
REMARK  status: ('A' for Active; 'I' for Inactive)
REMARK    1  A    between atoms: O_1  and  C_8
REMARK    2  A    between atoms: O_1  and  C_21
REMARK    3  A    between atoms: N_2  and  C_11
REMARK    4  A    between atoms: N_2  and  C_16
REMARK                            x       y       z     vdW  Elec       q    Type
REMARK                         _______ _______ _______ _____ _____    ______ ____
ROOT
ATOM      2  C   UNL     1      -5.946  -1.500   0.000  0.00  0.00    +0.417 C 
ATOM      3  O   UNL     1      -7.245  -0.750   0.000  0.00  0.00    -0.225 OA
ATOM      4  N   UNL     1      -5.946  -3.000   0.000  0.00  0.00    -0.206 N 
ENDROOT
BRANCH   4   5
ATOM      5  C   UNL     1      -7.245  -3.750   0.000  0.00  0.00    +0.044 A 
ATOM      6  C   UNL     1      -7.245  -5.250   0.000  0.00  0.00    +0.024 A 
ATOM      7  C   UNL     1      -8.544  -6.000   0.000  0.00  0.00    +0.002 A 
ATOM      8  C   UNL     1      -9.843  -5.250   0.000  0.00  0.00    +0.000 A 
ATOM      9  C   UNL     1      -9.843  -3.750   0.000  0.00  0.00    +0.002 A 
ATOM     10  C   UNL     1      -8.544  -3.000   0.000  0.00  0.00    +0.024 A 
ENDBRANCH   4   5
BRANCH   4  11
ATOM     11  C   UNL     1      -4.647  -3.750   0.000  0.00  0.00    +0.044 A 
ATOM     12  C   UNL     1      -4.647  -5.250   0.000  0.00  0.00    +0.024 A 
ATOM     13  C   UNL     1      -3.348  -6.000   0.000  0.00  0.00    +0.002 A 
ATOM     14  C   UNL     1      -2.049  -5.250   0.000  0.00  0.00    +0.000 A 
ATOM     15  C   UNL     1      -2.049  -3.750   0.000  0.00  0.00    +0.002 A 
ATOM     16  C   UNL     1      -3.348  -3.000   0.000  0.00  0.00    +0.024 A 
ENDBRANCH   4  11
BRANCH   2   1
ATOM      1  O   UNL     1      -4.647  -0.750   0.000  0.00  0.00    -0.411 OA
BRANCH   1  17
ATOM     17  C   UNL     1      -4.647   0.750   0.000  0.00  0.00    +0.133 A 
ATOM     18  C   UNL     1      -3.348   1.500   0.000  0.00  0.00    +0.046 A 
ATOM     19  C   UNL     1      -3.348   3.000   0.000  0.00  0.00    +0.004 A 
ATOM     20  C   UNL     1      -4.647   3.750   0.000  0.00  0.00    +0.000 A 
ATOM     21  C   UNL     1      -5.946   3.000   0.000  0.00  0.00    +0.004 A 
ATOM     22  C   UNL     1      -5.946   1.500   0.000  0.00  0.00    +0.046 A 
ENDBRANCH   1  17
ENDBRANCH   2   1
TORSDOF 4