REMARK  Name = 653004
REMARK  6 active torsions:
REMARK  status: ('A' for Active; 'I' for Inactive)
REMARK    1  A    between atoms: C_1  and  O_7
REMARK    2  A    between atoms: C_6  and  O_9
REMARK    3  A    between atoms: O_7  and  C_8
REMARK    4  A    between atoms: O_9  and  C_10
REMARK    5  A    between atoms: C_14  and  C_15
REMARK    6  A    between atoms: C_15  and  O_16
REMARK                            x       y       z     vdW  Elec       q    Type
REMARK                         _______ _______ _______ _____ _____    ______ ____
ROOT
ATOM      1  C   UNL     1      -7.865   0.675   0.000  0.00  0.00    +0.162 A 
ATOM      4  C   UNL     1      -7.865  -0.825   0.000  0.00  0.00    +0.162 A 
ATOM      7  C   UNL     1      -6.566  -1.575   0.000  0.00  0.00    +0.055 A 
ATOM      8  C   UNL     1      -5.267  -0.825   0.000  0.00  0.00    -0.021 A 
ATOM      9  C   UNL     1      -3.968  -1.575   0.000  0.00  0.00    +0.116 C 
ATOM     18  N   UNL     1      -2.669  -0.825   0.000  0.00  0.00    -0.307 NA
ATOM     19  H   UNL     1      -1.786  -1.335   0.000  0.00  0.00    +0.123 HD
ATOM     20  C   UNL     1      -2.669   0.675   0.000  0.00  0.00    +0.086 C 
ATOM     21  C   UNL     1      -3.968   1.425   0.000  0.00  0.00    +0.050 C 
ATOM     22  C   UNL     1      -5.267   0.675   0.000  0.00  0.00    -0.038 A 
ATOM     23  C   UNL     1      -6.566   1.425   0.000  0.00  0.00    +0.053 A 
ENDROOT
BRANCH   9  10
ATOM     10  C   UNL     1      -3.968  -3.075   0.000  0.00  0.00    +0.085 C 
ATOM     11  C   UNL     1      -3.455  -4.484   0.000  0.00  0.00    +0.036 C 
ATOM     12  C   UNL     1      -4.419  -5.634   0.000  0.00  0.00    +0.003 C 
ATOM     13  C   UNL     1      -5.896  -5.373   0.000  0.00  0.00    +0.000 C 
ATOM     14  C   UNL     1      -6.410  -3.964   0.000  0.00  0.00    +0.003 C 
ATOM     15  C   UNL     1      -5.445  -2.814   0.000  0.00  0.00    +0.036 C 
BRANCH  10  16
ATOM     16  O   UNL     1      -2.491  -2.814   0.000  0.00  0.00    -0.387 OA
ATOM     17  H   UNL     1      -1.867  -3.558   0.000  0.00  0.00    +0.210 HD
ENDBRANCH  10  16
ENDBRANCH   9  10
BRANCH   1   2
ATOM      2  O   UNL     1      -9.164   1.425   0.000  0.00  0.00    -0.491 OA
ATOM      3  C   UNL     1     -10.463   0.675   0.000  0.00  0.00    +0.277 C 
ENDBRANCH   1   2
BRANCH   4   5
ATOM      5  O   UNL     1      -9.164  -1.575   0.000  0.00  0.00    -0.491 OA
ATOM      6  C   UNL     1     -10.463  -0.825   0.000  0.00  0.00    +0.277 C 
ENDBRANCH   4   5
TORSDOF 4