REMARK  Name = 679449
REMARK  1 active torsions:
REMARK  status: ('A' for Active; 'I' for Inactive)
REMARK    1  A    between atoms: C_3  and  C_8
REMARK                            x       y       z     vdW  Elec       q    Type
REMARK                         _______ _______ _______ _____ _____    ______ ____
ROOT
ATOM      1  C   UNL     1      -0.119  -6.668   0.000  0.00  0.00    +0.090 C 
ATOM      2  N   UNL     1      -0.997  -5.452   0.000  0.00  0.00    -0.312 NA
ATOM      3  H   UNL     1      -2.017  -5.450   0.000  0.00  0.00    +0.122 HD
ATOM      4  C   UNL     1      -0.113  -4.241   0.000  0.00  0.00    +0.128 C 
ATOM      5  C   UNL     1       1.313  -4.708   0.000  0.00  0.00    +0.185 C 
ATOM      8  N   UNL     1       2.741  -4.248   0.000  0.00  0.00    -0.169 NA
ATOM      9  N   UNL     1       3.619  -5.464   0.000  0.00  0.00    -0.190 NA
ATOM     10  C   UNL     1       2.735  -6.675   0.000  0.00  0.00    +0.174 C 
ATOM     11  C   UNL     1       1.309  -6.208   0.000  0.00  0.00    +0.071 C 
ENDROOT
BRANCH   5   6
ATOM      6  C   UNL     1       1.317  -3.208   0.000  0.00  0.00    +0.096 C 
ATOM      7  N   UNL     1       1.320  -1.708   0.000  0.00  0.00    -0.194 NA
ENDBRANCH   5   6
TORSDOF 1