REMARK  Name = 654260
REMARK  9 active torsions:
REMARK  status: ('A' for Active; 'I' for Inactive)
REMARK    1  A    between atoms: C_5  and  N_32
REMARK    2  A    between atoms: C_6  and  C_8
REMARK    3  A    between atoms: C_12  and  N_31
REMARK    4  A    between atoms: C_14  and  C_29
REMARK    5  A    between atoms: C_15  and  O_18
REMARK    6  A    between atoms: O_18  and  C_19
REMARK    7  A    between atoms: C_26  and  C_28
REMARK    8  A    between atoms: C_28  and  N_33
REMARK    9  A    between atoms: C_28  and  C_34
REMARK                            x       y       z     vdW  Elec       q    Type
REMARK                         _______ _______ _______ _____ _____    ______ ____
ROOT
ATOM      4  C   UNL     1     -15.039  -3.750   0.000  0.00  0.00    +0.253 C 
ATOM      5  N   UNL     1     -13.740  -3.000   0.000  0.00  0.00    -0.236 N 
ATOM      6  H   UNL     1     -13.740  -2.016   0.000  0.00  0.00    +0.159 HD
ATOM      7  C   UNL     1     -12.441  -3.750   0.000  0.00  0.00    +0.310 C 
ATOM      8  N   UNL     1     -11.142  -3.000   0.000  0.00  0.00    -0.269 N 
ATOM      9  H   UNL     1     -11.142  -2.016   0.000  0.00  0.00    +0.156 HD
ATOM     25  O   UNL     1     -12.441  -5.250   0.000  0.00  0.00    -0.252 OA
ATOM     26  O   UNL     1     -15.039  -5.250   0.000  0.00  0.00    -0.270 OA
ENDROOT
BRANCH   8  10
ATOM     10  C   UNL     1      -9.843  -3.750   0.000  0.00  0.00    +0.035 A 
ATOM     11  C   UNL     1      -8.544  -3.000   0.000  0.00  0.00    +0.027 A 
ATOM     12  C   UNL     1      -7.245  -3.750   0.000  0.00  0.00    +0.048 A 
ATOM     13  C   UNL     1      -7.245  -5.250   0.000  0.00  0.00    +0.135 A 
ATOM     22  C   UNL     1      -8.544  -6.000   0.000  0.00  0.00    -0.006 A 
ATOM     23  C   UNL     1      -8.544  -7.500   0.000  0.00  0.00    +0.047 C 
ATOM     24  C   UNL     1      -9.843  -5.250   0.000  0.00  0.00    +0.030 A 
BRANCH  13  14
ATOM     14  O   UNL     1      -5.946  -6.000   0.000  0.00  0.00    -0.423 OA
BRANCH  14  15
ATOM     15  C   UNL     1      -4.647  -5.250   0.000  0.00  0.00    +0.323 A 
ATOM     16  N   UNL     1      -4.647  -3.750   0.000  0.00  0.00    -0.202 NA
ATOM     17  C   UNL     1      -3.348  -3.000   0.000  0.00  0.00    +0.133 A 
ATOM     18  C   UNL     1      -2.049  -3.750   0.000  0.00  0.00    +0.054 A 
ATOM     19 BR   UNL     1      -0.750  -3.000   0.000  0.00  0.00    -0.047 Br
ATOM     20  C   UNL     1      -2.049  -5.250   0.000  0.00  0.00    +0.133 A 
ATOM     21  N   UNL     1      -3.348  -6.000   0.000  0.00  0.00    -0.202 NA
ENDBRANCH  14  15
ENDBRANCH  13  14
ENDBRANCH   8  10
BRANCH   4   3
ATOM      1  C   UNL     1     -17.637  -0.750   0.000  0.00  0.00    +0.001 A 
ATOM      2  C   UNL     1     -16.339  -1.500   0.000  0.00  0.00    +0.015 A 
ATOM      3  C   UNL     1     -16.339  -3.000   0.000  0.00  0.00    +0.058 A 
ATOM     27  C   UNL     1     -17.637  -3.750   0.000  0.00  0.00    +0.046 A 
ATOM     37  C   UNL     1     -18.936  -3.000   0.000  0.00  0.00    +0.024 A 
ATOM     38  C   UNL     1     -18.936  -1.500   0.000  0.00  0.00    +0.002 A 
BRANCH  27  28
ATOM     28  N   UNL     1     -17.637  -5.250   0.000  0.00  0.00    -0.284 N 
ATOM     29  H   UNL     1     -16.785  -5.742   0.000  0.00  0.00    +0.155 HD
ATOM     30  C   UNL     1     -18.936  -6.000   0.000  0.00  0.00    +0.234 C 
ATOM     36  O   UNL     1     -18.936  -7.500   0.000  0.00  0.00    -0.274 OA
BRANCH  30  31
ATOM     31  C   UNL     1     -20.236  -5.250   0.000  0.00  0.00    +0.135 C 
ATOM     32  C   UNL     1     -21.535  -6.000   0.000  0.00  0.00    +0.033 C 
BRANCH  31  33
ATOM     33  N   UNL     1     -20.236  -3.750   0.000  0.00  0.00    -0.320 NA
ATOM     34  H   UNL     1     -21.119  -3.240   0.000  0.00  0.00    +0.119 HD
ATOM     35  H   UNL     1     -19.352  -3.240   0.000  0.00  0.00    +0.119 HD
ENDBRANCH  31  33
ENDBRANCH  30  31
ENDBRANCH  27  28
ENDBRANCH   4   3
TORSDOF 7