REMARK  Name = 67436
REMARK  6 active torsions:
REMARK  status: ('A' for Active; 'I' for Inactive)
REMARK    1  A    between atoms: C_10  and  N_37
REMARK    2  A    between atoms: C_11  and  C_13
REMARK    3  A    between atoms: C_16  and  C_35
REMARK    4  A    between atoms: C_17  and  C_33
REMARK    5  A    between atoms: C_23  and  N_32
REMARK    6  A    between atoms: C_25  and  C_27
REMARK                            x       y       z     vdW  Elec       q    Type
REMARK                         _______ _______ _______ _____ _____    ______ ____
ROOT
ATOM     15  C   UNL     1       8.057  -7.955   0.000  0.00  0.00    +0.056 A 
ATOM     16  C   UNL     1       6.758  -8.705   0.000  0.00  0.00    +0.053 A 
ATOM     17  C   UNL     1       6.758 -10.205   0.000  0.00  0.00    +0.021 A 
ATOM     18  C   UNL     1       8.057 -10.955   0.000  0.00  0.00    +0.014 A 
ATOM     19  C   UNL     1       9.356 -10.205   0.000  0.00  0.00    +0.038 A 
ATOM     36 CL   UNL     1       5.459  -7.955   0.000  0.00  0.00    -0.083 Cl
ATOM     37  C   UNL     1       9.356  -8.705   0.000  0.00  0.00    +0.027 A 
ENDROOT
BRANCH  15  13
ATOM     11  N   UNL     1       6.758  -5.705   0.000  0.00  0.00    -0.281 N 
ATOM     12  H   UNL     1       5.906  -6.198   0.000  0.00  0.00    +0.155 HD
ATOM     13  C   UNL     1       8.057  -6.455   0.000  0.00  0.00    +0.250 C 
ATOM     14  O   UNL     1       9.356  -5.705   0.000  0.00  0.00    -0.270 OA
BRANCH  11  10
ATOM      7  C   UNL     1       6.758  -1.205   0.000  0.00  0.00    +0.065 A 
ATOM      8  C   UNL     1       5.459  -1.956   0.000  0.00  0.00    +0.018 A 
ATOM      9  C   UNL     1       5.459  -3.455   0.000  0.00  0.00    +0.024 A 
ATOM     10  C   UNL     1       6.758  -4.205   0.000  0.00  0.00    +0.034 A 
ATOM     38  C   UNL     1       8.057  -3.455   0.000  0.00  0.00    +0.024 A 
ATOM     39  C   UNL     1       8.057  -1.955   0.000  0.00  0.00    +0.018 A 
BRANCH   7   6
ATOM      1  H   UNL     1       9.398   0.713   0.000  0.00  0.00    +0.291 HD
ATOM      2  N   UNL     1       7.972   1.176   0.000  0.00  0.00    -0.230 N 
ATOM      3  C   UNL     1       7.508   2.603   0.000  0.00  0.00    +0.273 C 
ATOM      4  C   UNL     1       6.008   2.603   0.000  0.00  0.00    +0.333 C 
ATOM      5  N   UNL     1       5.545   1.176   0.000  0.00  0.00    -0.079 NA
ATOM      6  C   UNL     1       6.758   0.295   0.000  0.00  0.00    +0.313 C 
ENDBRANCH   7   6
ENDBRANCH  11  10
ENDBRANCH  15  13
BRANCH  19  20
ATOM     20  C   UNL     1      10.655 -10.955   0.000  0.00  0.00    +0.248 C 
ATOM     21  N   UNL     1      10.655 -12.455   0.000  0.00  0.00    -0.282 N 
ATOM     22  H   UNL     1       9.803 -12.948   0.000  0.00  0.00    +0.155 HD
ATOM     35  O   UNL     1      11.954 -10.205   0.000  0.00  0.00    -0.270 OA
BRANCH  21  23
ATOM     23  C   UNL     1      11.954 -13.205   0.000  0.00  0.00    +0.034 A 
ATOM     24  C   UNL     1      11.954 -14.705   0.000  0.00  0.00    +0.024 A 
ATOM     25  C   UNL     1      13.253 -15.455   0.000  0.00  0.00    +0.018 A 
ATOM     26  C   UNL     1      14.552 -14.705   0.000  0.00  0.00    +0.065 A 
ATOM     33  C   UNL     1      14.552 -13.205   0.000  0.00  0.00    +0.018 A 
ATOM     34  C   UNL     1      13.253 -12.455   0.000  0.00  0.00    +0.024 A 
BRANCH  26  27
ATOM     27  C   UNL     1      15.852 -15.455   0.000  0.00  0.00    +0.313 C 
ATOM     28  N   UNL     1      17.222 -14.845   0.000  0.00  0.00    -0.230 N 
ATOM     29  C   UNL     1      18.226 -15.960   0.000  0.00  0.00    +0.273 C 
ATOM     30  C   UNL     1      17.476 -17.259   0.000  0.00  0.00    +0.333 C 
ATOM     31  H   UNL     1      17.534 -13.378   0.000  0.00  0.00    +0.291 HD
ATOM     32  N   UNL     1      16.008 -16.947   0.000  0.00  0.00    -0.079 NA
ENDBRANCH  26  27
ENDBRANCH  21  23
ENDBRANCH  19  20
TORSDOF 6