REMARK  Name = 69359
REMARK  3 active torsions:
REMARK  status: ('A' for Active; 'I' for Inactive)
REMARK    1  A    between atoms: N_1  and  C_19
REMARK    2  A    between atoms: C_9  and  C_10
REMARK    3  A    between atoms: C_10  and  O_23
REMARK                            x       y       z     vdW  Elec       q    Type
REMARK                         _______ _______ _______ _____ _____    ______ ____
ROOT
ATOM      1  N   UNL     1      -5.250  -4.963   0.000  0.00  0.00    -0.230 N 
ATOM      8  C   UNL     1      -6.132  -6.177   0.000  0.00  0.00    +0.254 C 
ATOM      9  C   UNL     1      -7.558  -5.713   0.000  0.00  0.00    +0.045 A 
ATOM     10  C   UNL     1      -8.857  -6.463   0.000  0.00  0.00    +0.013 A 
ATOM     11  C   UNL     1     -10.156  -5.713   0.000  0.00  0.00    +0.001 A 
ATOM     12  C   UNL     1     -10.156  -4.213   0.000  0.00  0.00    +0.000 A 
ATOM     13  C   UNL     1      -8.857  -3.463   0.000  0.00  0.00    +0.009 A 
ATOM     14  C   UNL     1      -7.558  -4.213   0.000  0.00  0.00    +0.019 A 
ATOM     15  O   UNL     1      -5.668  -7.604   0.000  0.00  0.00    -0.270 OA
ATOM     16  C   UNL     1      -6.132  -3.750   0.000  0.00  0.00    +0.193 C 
ENDROOT
BRANCH   1   2
ATOM      2  C   UNL     1      -3.773  -5.224   0.000  0.00  0.00    +0.043 A 
ATOM      3  C   UNL     1      -3.260  -6.633   0.000  0.00  0.00    +0.043 A 
ATOM      4  C   UNL     1      -1.783  -6.894   0.000  0.00  0.00    +0.112 A 
ATOM      5  N   UNL     1      -0.818  -5.745   0.000  0.00  0.00    -0.263 NA
ATOM      6  C   UNL     1      -1.331  -4.335   0.000  0.00  0.00    +0.112 A 
ATOM      7  C   UNL     1      -2.809  -4.075   0.000  0.00  0.00    +0.043 A 
ENDBRANCH   1   2
BRANCH  16  19
ATOM     19  C   UNL     1      -4.983  -2.786   0.000  0.00  0.00    +0.007 A 
ATOM     20  C   UNL     1      -5.243  -1.309   0.000  0.00  0.00    +0.008 A 
ATOM     21  C   UNL     1      -4.094  -0.344   0.000  0.00  0.00    +0.000 A 
ATOM     22  C   UNL     1      -2.684  -0.858   0.000  0.00  0.00    +0.000 A 
ATOM     23  C   UNL     1      -2.424  -2.335   0.000  0.00  0.00    +0.000 A 
ATOM     24  C   UNL     1      -3.573  -3.299   0.000  0.00  0.00    +0.008 A 
ENDBRANCH  16  19
BRANCH  16  17
ATOM     17  O   UNL     1      -6.742  -2.380   0.000  0.00  0.00    -0.364 OA
ATOM     18  H   UNL     1      -6.172  -1.595   0.000  0.00  0.00    +0.213 HD
ENDBRANCH  16  17
TORSDOF 3