REMARK  Name = 6731
REMARK  7 active torsions:
REMARK  status: ('A' for Active; 'I' for Inactive)
REMARK    1  A    between atoms: C_2  and  C_18
REMARK    2  A    between atoms: C_9  and  O_17
REMARK    3  A    between atoms: C_11  and  C_13
REMARK    4  A    between atoms: C_13  and  C_14
REMARK    5  A    between atoms: C_13  and  C_15
REMARK    6  A    between atoms: C_13  and  C_16
REMARK    7  A    between atoms: O_17  and  C_18
REMARK                            x       y       z     vdW  Elec       q    Type
REMARK                         _______ _______ _______ _____ _____    ______ ____
ROOT
ATOM      6  C   UNL     1       6.971  -1.426   0.000  0.00  0.00    +0.132 A 
ATOM      7  C   UNL     1       5.672  -2.176   0.000  0.00  0.00    +0.046 A 
ATOM      8  C   UNL     1       4.373  -1.426   0.000  0.00  0.00    +0.008 A 
ATOM      9  C   UNL     1       4.373   0.074   0.000  0.00  0.00    -0.042 A 
ATOM     14  C   UNL     1       5.672   0.824   0.000  0.00  0.00    +0.008 A 
ATOM     15  C   UNL     1       6.971   0.074   0.000  0.00  0.00    +0.046 A 
ENDROOT
BRANCH   9  10
ATOM     10  C   UNL     1       3.074   0.824   0.000  0.00  0.00    -0.013 C 
ATOM     11  C   UNL     1       2.324  -0.475   0.000  0.00  0.00    +0.015 C 
ATOM     12  C   UNL     1       1.775   1.574   0.000  0.00  0.00    +0.015 C 
ATOM     13  C   UNL     1       3.824   2.123   0.000  0.00  0.00    +0.015 C 
ENDBRANCH   9  10
BRANCH   6   5
ATOM      5  O   UNL     1       8.270  -2.176   0.000  0.00  0.00    -0.422 OA
BRANCH   5   3
ATOM      3  C   UNL     1       9.569  -1.426   0.000  0.00  0.00    +0.344 C 
ATOM      4  O   UNL     1       9.569   0.074   0.000  0.00  0.00    -0.245 OA
BRANCH   3   2
ATOM      1  C   UNL     1      12.167  -1.426   0.000  0.00  0.00    +0.015 A 
ATOM      2  C   UNL     1      10.868  -2.176   0.000  0.00  0.00    +0.059 A 
ATOM     16  C   UNL     1      10.868  -3.676   0.000  0.00  0.00    +0.015 A 
ATOM     17  C   UNL     1      12.167  -4.426   0.000  0.00  0.00    +0.001 A 
ATOM     18  C   UNL     1      13.466  -3.676   0.000  0.00  0.00    +0.000 A 
ATOM     19  C   UNL     1      13.466  -2.176   0.000  0.00  0.00    +0.001 A 
ENDBRANCH   3   2
ENDBRANCH   5   3
ENDBRANCH   6   5
TORSDOF 4