REMARK  Name = 65238
REMARK  9 active torsions:
REMARK  status: ('A' for Active; 'I' for Inactive)
REMARK    1  A    between atoms: C_2  and  C_28
REMARK    2  A    between atoms: C_7  and  C_25
REMARK    3  A    between atoms: C_14  and  C_24
REMARK    4  A    between atoms: C_14  and  C_26
REMARK    5  A    between atoms: C_15  and  C_21
REMARK    6  A    between atoms: C_21  and  O_23
REMARK    7  A    between atoms: C_26  and  N_27
REMARK    8  A    between atoms: C_28  and  C_29
REMARK    9  A    between atoms: C_28  and  C_30
REMARK                            x       y       z     vdW  Elec       q    Type
REMARK                         _______ _______ _______ _____ _____    ______ ____
ROOT
ATOM      1  C   UNL     1      -1.117 -10.041   0.000  0.00  0.00    +0.059 A 
ATOM      6  C   UNL     1      -2.417  -9.291   0.000  0.00  0.00    +0.015 A 
ATOM      7  C   UNL     1      -3.716 -10.041   0.000  0.00  0.00    +0.001 A 
ATOM      8  C   UNL     1      -3.716 -11.541   0.000  0.00  0.00    +0.000 A 
ATOM      9  C   UNL     1      -2.417 -12.291   0.000  0.00  0.00    +0.001 A 
ATOM     10  C   UNL     1      -1.117 -11.541   0.000  0.00  0.00    +0.015 A 
ENDROOT
BRANCH   1   2
ATOM      2  C   UNL     1       0.181  -9.291   0.000  0.00  0.00    +0.337 C 
ATOM      5  O   UNL     1       0.181  -7.791   0.000  0.00  0.00    -0.245 OA
BRANCH   2   3
ATOM      3  O   UNL     1       1.480 -10.041   0.000  0.00  0.00    -0.477 OA
ATOM      4  H   UNL     1       1.480 -10.978   0.000  0.00  0.00    +0.295 HD
ENDBRANCH   2   3
ENDBRANCH   1   2
TORSDOF 2