REMARK  Name = 70307
REMARK  5 active torsions:
REMARK  status: ('A' for Active; 'I' for Inactive)
REMARK    1  A    between atoms: C_8  and  C_19
REMARK    2  A    between atoms: C_9  and  C_18
REMARK    3  A    between atoms: C_12  and  C_20
REMARK    4  A    between atoms: C_15  and  C_17
REMARK    5  A    between atoms: C_19  and  C_20
REMARK                            x       y       z     vdW  Elec       q    Type
REMARK                         _______ _______ _______ _____ _____    ______ ____
ROOT
ATOM      1  N   UNL     1      -6.820  -6.304   0.000  0.00  0.00    -0.177 NA
ATOM      2  C   UNL     1      -5.521  -5.554   0.000  0.00  0.00    +0.278 A 
ATOM      3  C   UNL     1      -4.222  -6.304   0.000  0.00  0.00    +0.038 A 
ATOM     11  C   UNL     1      -4.222  -7.804   0.000  0.00  0.00    +0.024 A 
ATOM     12  C   UNL     1      -2.923  -8.554   0.000  0.00  0.00    +0.064 C 
ATOM     13  N   UNL     1      -5.521  -8.554   0.000  0.00  0.00    -0.331 N 
ATOM     14  H   UNL     1      -5.521 -10.054   0.000  0.00  0.00    +0.168 HD
ATOM     15  O   UNL     1      -5.521  -4.054   0.000  0.00  0.00    -0.265 OA
ATOM     16  C   UNL     1      -6.820  -7.804   0.000  0.00  0.00    +0.203 A 
ATOM     17  N   UNL     1      -8.119  -8.554   0.000  0.00  0.00    -0.256 N 
ATOM     18  H   UNL     1      -8.119  -9.538   0.000  0.00  0.00    +0.158 HD
ATOM     19  C   UNL     1      -9.418  -7.804   0.000  0.00  0.00    +0.216 C 
ATOM     20  C   UNL     1      -9.418  -6.304   0.000  0.00  0.00    +0.109 C 
ATOM     21  O   UNL     1     -10.717  -8.554   0.000  0.00  0.00    -0.276 OA
ENDROOT
BRANCH   3   4
ATOM      4  C   UNL     1      -2.923  -5.554   0.000  0.00  0.00    +0.047 C 
BRANCH   4   5
ATOM      5  C   UNL     1      -2.923  -4.054   0.000  0.00  0.00    +0.066 C 
BRANCH   5   6
ATOM      6  C   UNL     1      -1.624  -3.304   0.000  0.00  0.00    +0.251 C 
ATOM      7  O   UNL     1      -1.467  -1.812   0.000  0.00  0.00    -0.349 OA
ATOM      8  C   UNL     1       0.000  -1.500   0.000  0.00  0.00    +0.191 C 
ATOM      9  C   UNL     1       0.750  -2.799   0.000  0.00  0.00    +0.191 C 
ATOM     10  O   UNL     1      -0.254  -3.914   0.000  0.00  0.00    -0.349 OA
ENDBRANCH   5   6
ENDBRANCH   4   5
ENDBRANCH   3   4
TORSDOF 3