REMARK  Name = 65248
REMARK  0 active torsions:
REMARK  status: ('A' for Active; 'I' for Inactive)
REMARK                            x       y       z     vdW  Elec       q    Type
REMARK                         _______ _______ _______ _____ _____    ______ ____
ROOT
ATOM      1  C   UNL     1       5.174   1.172   0.000  0.00  0.00    +0.171 A 
ATOM      2  N   UNL     1       6.600   1.636   0.000  0.00  0.00    -0.277 NA
ATOM      3  H   UNL     1       7.332   0.977   0.000  0.00  0.00    +0.189 HD
ATOM      4  S   UNL     1       4.710  -0.254   0.000  0.00  0.00    -0.013 S 
ATOM      5  S   UNL     1       3.210  -0.254   0.000  0.00  0.00    -0.024 S 
ATOM      6  C   UNL     1       2.747   1.172   0.000  0.00  0.00    +0.131 A 
ATOM      7  S   UNL     1       1.320   1.636   0.000  0.00  0.00    -0.024 S 
ATOM      8  N   UNL     1       3.960   2.054   0.000  0.00  0.00    -0.323 N 
ATOM      9  H   UNL     1       3.960   3.554   0.000  0.00  0.00    +0.169 HD
ENDROOT
TORSDOF 0