REMARK  Name = 6866
REMARK  4 active torsions:
REMARK  status: ('A' for Active; 'I' for Inactive)
REMARK    1  A    between atoms: C_5  and  C_9
REMARK    2  A    between atoms: N_11  and  C_12
REMARK    3  A    between atoms: C_12  and  C_13
REMARK    4  A    between atoms: C_13  and  C_14
REMARK                            x       y       z     vdW  Elec       q    Type
REMARK                         _______ _______ _______ _____ _____    ______ ____
ROOT
ATOM      1 CL   UNL     1      -3.635   4.205   0.000  0.00  0.00    -0.083 Cl
ATOM      2  C   UNL     1      -2.335   4.955   0.000  0.00  0.00    +0.042 A 
ATOM      3  C   UNL     1      -1.036   4.205   0.000  0.00  0.00    +0.040 A 
ATOM      4  C   UNL     1       0.263   4.955   0.000  0.00  0.00    +0.054 A 
ATOM      5  C   UNL     1       0.263   6.455   0.000  0.00  0.00    +0.055 A 
ATOM     13  C   UNL     1      -1.036   7.205   0.000  0.00  0.00    +0.016 A 
ATOM     14 CL   UNL     1       1.562   4.205   0.000  0.00  0.00    -0.083 Cl
ATOM     15  C   UNL     1      -2.335   6.455   0.000  0.00  0.00    +0.021 A 
ENDROOT
BRANCH   5   6
ATOM      6  C   UNL     1       1.562   7.205   0.000  0.00  0.00    +0.245 C 
ATOM      7  N   UNL     1       1.562   8.705   0.000  0.00  0.00    -0.311 N 
ATOM      8  H   UNL     1       2.414   9.197   0.000  0.00  0.00    +0.149 HD
ATOM     12  O   UNL     1       2.861   6.455   0.000  0.00  0.00    -0.270 OA
BRANCH   7   9
ATOM      9  C   UNL     1       0.263   9.455   0.000  0.00  0.00    +0.104 C 
BRANCH   9  10
ATOM     10  C   UNL     1      -1.036   8.705   0.000  0.00  0.00    +0.015 C 
ATOM     11  C   UNL     1      -2.335   9.455   0.000  0.00  0.00    +0.005 C 
ENDBRANCH   9  10
ENDBRANCH   7   9
ENDBRANCH   5   6
TORSDOF 3