REMARK  Name = 660151
REMARK  9 active torsions:
REMARK  status: ('A' for Active; 'I' for Inactive)
REMARK    1  A    between atoms: C_9  and  C_10
REMARK    2  A    between atoms: C_11  and  C_12
REMARK    3  A    between atoms: C_11  and  P_14
REMARK    4  A    between atoms: P_14  and  O_16
REMARK    5  A    between atoms: P_14  and  O_17
REMARK    6  A    between atoms: O_16  and  C_20
REMARK    7  A    between atoms: O_17  and  C_18
REMARK    8  A    between atoms: C_18  and  C_19
REMARK    9  A    between atoms: C_20  and  C_21
REMARK                            x       y       z     vdW  Elec       q    Type
REMARK                         _______ _______ _______ _____ _____    ______ ____
ROOT
ATOM      6  C   UNL     1       6.686  -1.083   0.000  0.00  0.00    +0.037 C 
ATOM      7  C   UNL     1       8.153  -1.395   0.000  0.00  0.00    +0.141 C 
ENDROOT
BRANCH   6   5
ATOM      1  C   UNL     1       2.198   2.307   0.000  0.00  0.00    +0.002 A 
ATOM      2  C   UNL     1       2.198   0.807   0.000  0.00  0.00    +0.001 A 
ATOM      3  C   UNL     1       3.497   0.057   0.000  0.00  0.00    +0.010 A 
ATOM      4  C   UNL     1       4.796   0.807   0.000  0.00  0.00    +0.007 A 
ATOM      5  C   UNL     1       6.223   0.343   0.000  0.00  0.00    +0.001 A 
ATOM     18  C   UNL     1       7.104   1.557   0.000  0.00  0.00    +0.091 A 
ATOM     19  N   UNL     1       6.223   2.770   0.000  0.00  0.00    -0.360 N 
ATOM     20  H   UNL     1       6.527   3.707   0.000  0.00  0.00    +0.165 HD
ATOM     21  C   UNL     1       4.796   2.307   0.000  0.00  0.00    +0.047 A 
ATOM     22  C   UNL     1       3.497   3.057   0.000  0.00  0.00    +0.026 A 
ENDBRANCH   6   5
BRANCH   7   8
ATOM      8  P   UNL     1       8.617  -2.822   0.000  0.00  0.00    +0.373 P 
ATOM     15  O   UNL     1       7.190  -3.285   0.000  0.00  0.00    -0.252 OA
BRANCH   8   9
ATOM      9  O   UNL     1      10.043  -2.358   0.000  0.00  0.00    -0.304 OA
BRANCH   9  10
ATOM     10  C   UNL     1      11.158  -3.362   0.000  0.00  0.00    +0.167 C 
ATOM     11  C   UNL     1      12.585  -2.898   0.000  0.00  0.00    +0.034 C 
ENDBRANCH   9  10
ENDBRANCH   8   9
BRANCH   8  12
ATOM     12  O   UNL     1       9.080  -4.248   0.000  0.00  0.00    -0.304 OA
BRANCH  12  13
ATOM     13  C   UNL     1       8.077  -5.363   0.000  0.00  0.00    +0.167 C 
ATOM     14  C   UNL     1       6.609  -5.051   0.000  0.00  0.00    +0.034 C 
ENDBRANCH  12  13
ENDBRANCH   8  12
ENDBRANCH   7   8
BRANCH   7  16
ATOM     16  C   UNL     1       9.157  -0.280   0.000  0.00  0.00    +0.107 C 
ATOM     17  N   UNL     1      10.161   0.834   0.000  0.00  0.00    -0.191 NA
ENDBRANCH   7  16
TORSDOF 7