REMARK  Name = 680515
REMARK  5 active torsions:
REMARK  status: ('A' for Active; 'I' for Inactive)
REMARK    1  A    between atoms: C_3  and  N_10
REMARK    2  A    between atoms: N_11  and  C_12
REMARK    3  A    between atoms: C_15  and  N_18
REMARK    4  A    between atoms: N_18  and  C_19
REMARK    5  A    between atoms: N_18  and  C_20
REMARK                            x       y       z     vdW  Elec       q    Type
REMARK                         _______ _______ _______ _____ _____    ______ ____
ROOT
ATOM      9  N   UNL     1     -10.025  -0.275   0.000  0.00  0.00    -0.146 NA
ATOM     10  N   UNL     1      -9.274  -1.574   0.000  0.00  0.00    -0.149 NA
ENDROOT
BRANCH   9   8
ATOM      1  C   UNL     1      -7.024   2.324   0.000  0.00  0.00    +0.003 A 
ATOM      2  C   UNL     1      -7.774   3.623   0.000  0.00  0.00    +0.012 A 
ATOM      3  C   UNL     1      -9.274   3.623   0.000  0.00  0.00    +0.022 A 
ATOM      4  C   UNL     1     -10.278   4.737   0.000  0.00  0.00    +0.049 A 
ATOM      5  C   UNL     1     -11.649   4.127   0.000  0.00  0.00    +0.196 A 
ATOM      6  O   UNL     1     -11.492   2.635   0.000  0.00  0.00    -0.461 OA
ATOM      7  C   UNL     1     -10.025   2.324   0.000  0.00  0.00    +0.162 A 
ATOM      8  C   UNL     1      -9.274   1.025   0.000  0.00  0.00    +0.129 A 
ATOM     20  C   UNL     1      -7.774   1.025   0.000  0.00  0.00    +0.033 A 
ENDBRANCH   9   8
BRANCH  10  11
ATOM     11  C   UNL     1      -7.774  -1.574   0.000  0.00  0.00    +0.086 A 
ATOM     12  C   UNL     1      -7.024  -0.275   0.000  0.00  0.00    +0.031 A 
ATOM     13  C   UNL     1      -5.524  -0.275   0.000  0.00  0.00    +0.025 A 
ATOM     14  C   UNL     1      -4.774  -1.574   0.000  0.00  0.00    +0.029 A 
ATOM     18  C   UNL     1      -5.524  -2.873   0.000  0.00  0.00    +0.025 A 
ATOM     19  C   UNL     1      -7.024  -2.873   0.000  0.00  0.00    +0.031 A 
BRANCH  14  15
ATOM     15  N   UNL     1      -3.275  -1.574   0.000  0.00  0.00    -0.336 N 
ATOM     16  C   UNL     1      -2.525  -2.873   0.000  0.00  0.00    +0.129 C 
ATOM     17  C   UNL     1      -2.525  -0.275   0.000  0.00  0.00    +0.129 C 
ENDBRANCH  14  15
ENDBRANCH  10  11
TORSDOF 3