REMARK  Name = 66241
REMARK  2 active torsions:
REMARK  status: ('A' for Active; 'I' for Inactive)
REMARK    1  A    between atoms: C_6  and  C_8
REMARK    2  A    between atoms: C_7  and  C_16
REMARK                            x       y       z     vdW  Elec       q    Type
REMARK                         _______ _______ _______ _____ _____    ______ ____
ROOT
ATOM      1  H   UNL     1       3.299   4.214   0.000  0.00  0.00    +0.168 HD
ATOM      2  N   UNL     1       4.144   2.974   0.000  0.00  0.00    -0.261 N 
ATOM      3  C   UNL     1       3.394   1.675   0.000  0.00  0.00    +0.201 C 
ATOM      4  C   UNL     1       3.942   0.279   0.000  0.00  0.00    +0.178 C 
ATOM      5  C   UNL     1       5.375  -0.163   0.000  0.00  0.00    +0.003 C 
ATOM      6  C   UNL     1       5.599  -1.647   0.000  0.00  0.00    +0.048 C 
ATOM      7  C   UNL     1       6.614   0.682   0.000  0.00  0.00    +0.008 C 
ATOM     14  C   UNL     1       6.727   2.178   0.000  0.00  0.00    +0.138 C 
ATOM     15  O   UNL     1       2.922  -0.821   0.000  0.00  0.00    -0.291 OA
ATOM     16  N   UNL     1       5.627   3.198   0.000  0.00  0.00    -0.194 NA
ENDROOT
BRANCH   7   8
ATOM      8  C   UNL     1       7.914  -0.068   0.000  0.00  0.00    -0.016 A 
ATOM      9  C   UNL     1       9.213   0.682   0.000  0.00  0.00    +0.008 A 
ATOM     10  C   UNL     1      10.512  -0.068   0.000  0.00  0.00    +0.001 A 
ATOM     11  C   UNL     1      10.512  -1.568   0.000  0.00  0.00    +0.000 A 
ATOM     12  C   UNL     1       9.213  -2.318   0.000  0.00  0.00    +0.001 A 
ATOM     13  C   UNL     1       7.914  -1.568   0.000  0.00  0.00    +0.008 A 
ENDBRANCH   7   8
TORSDOF 1