REMARK  Name = 6910
REMARK  8 active torsions:
REMARK  status: ('A' for Active; 'I' for Inactive)
REMARK    1  A    between atoms: C_3  and  C_10
REMARK    2  A    between atoms: C_6  and  N_7
REMARK    3  A    between atoms: N_12  and  C_13
REMARK    4  A    between atoms: N_12  and  C_16
REMARK    5  A    between atoms: C_13  and  C_14
REMARK    6  A    between atoms: C_13  and  C_15
REMARK    7  A    between atoms: C_16  and  C_17
REMARK    8  A    between atoms: C_16  and  C_18
REMARK                            x       y       z     vdW  Elec       q    Type
REMARK                         _______ _______ _______ _____ _____    ______ ____
ROOT
ATOM      1  C   UNL     1      -0.924   7.399   0.000  0.00  0.00    +0.013 A 
ATOM      2  C   UNL     1       0.375   6.649   0.000  0.00  0.00    +0.043 A 
ATOM     12  C   UNL     1       0.375   5.149   0.000  0.00  0.00    +0.097 A 
ATOM     13  C   UNL     1      -0.924   4.399   0.000  0.00  0.00    +0.274 A 
ATOM     17  C   UNL     1      -2.223   5.149   0.000  0.00  0.00    +0.084 A 
ATOM     18  C   UNL     1      -2.223   6.649   0.000  0.00  0.00    +0.007 A 
ENDROOT
BRANCH   2   3
ATOM      3  C   UNL     1       1.674   7.399   0.000  0.00  0.00    +0.247 C 
ATOM      4  N   UNL     1       1.674   8.899   0.000  0.00  0.00    -0.292 N 
ATOM     11  O   UNL     1       2.973   6.649   0.000  0.00  0.00    -0.270 OA
BRANCH   4   5
ATOM      5  C   UNL     1       2.973   9.649   0.000  0.00  0.00    +0.070 C 
ATOM      6  C   UNL     1       2.973  11.150   0.000  0.00  0.00    +0.028 C 
ATOM      7  C   UNL     1       4.272   8.899   0.000  0.00  0.00    +0.028 C 
ENDBRANCH   4   5
BRANCH   4   8
ATOM      8  C   UNL     1       0.375   9.649   0.000  0.00  0.00    +0.070 C 
ATOM      9  C   UNL     1       0.375  11.150   0.000  0.00  0.00    +0.028 C 
ATOM     10  C   UNL     1      -0.924   8.899   0.000  0.00  0.00    +0.028 C 
ENDBRANCH   4   8
ENDBRANCH   2   3
BRANCH  13  14
ATOM     14  N   UNL     1      -0.924   2.900   0.000  0.00  0.00    +0.080 N 
ATOM     15  O   UNL     1       0.375   2.150   0.000  0.00  0.00    +0.041 OA
ATOM     16  O   UNL     1      -2.223   2.150   0.000  0.00  0.00    -0.576 OA
ENDBRANCH  13  14
TORSDOF 4