REMARK  Name = 6022
REMARK  12 active torsions:
REMARK  status: ('A' for Active; 'I' for Inactive)
REMARK    1  A    between atoms: P_1  and  O_6
REMARK    2  A    between atoms: P_1  and  O_7
REMARK    3  A    between atoms: P_1  and  O_8
REMARK    4  A    between atoms: P_2  and  O_7
REMARK    5  A    between atoms: P_2  and  O_10
REMARK    6  A    between atoms: P_2  and  O_11
REMARK    7  A    between atoms: O_4  and  C_18
REMARK    8  A    between atoms: O_5  and  C_19
REMARK    9  A    between atoms: O_6  and  C_22
REMARK   10  A    between atoms: N_13  and  C_20
REMARK   11  A    between atoms: N_17  and  C_26
REMARK   12  A    between atoms: C_21  and  C_22
REMARK                            x       y       z     vdW  Elec       q    Type
REMARK                         _______ _______ _______ _____ _____    ______ ____
ROOT
ATOM     14  C   UNL     1       0.476   2.738   0.477  0.00  0.00    +0.178 C 
ATOM     15  C   UNL     1       1.326   3.270  -0.672  0.00  0.00    +0.178 C 
ATOM     16  C   UNL     1       2.131   2.048  -1.071  0.00  0.00    +0.195 C 
ATOM     17  C   UNL     1       2.401   1.409   0.282  0.00  0.00    +0.253 C 
ATOM     34  O   UNL     1       1.237   1.671   1.089  0.00  0.00    -0.346 OA
ENDROOT
BRANCH  17  18
ATOM     18  N   UNL     1       2.647  -0.030   0.223  0.00  0.00    -0.286 N 
ATOM     19  C   UNL     1       3.872  -0.638   0.139  0.00  0.00    +0.203 A 
ATOM     20  N   UNL     1       3.776  -1.951   0.102  0.00  0.00    -0.231 NA
ATOM     21  C   UNL     1       2.429  -2.206   0.164  0.00  0.00    +0.147 A 
ATOM     22  C   UNL     1       1.697  -3.389   0.164  0.00  0.00    +0.147 A 
ATOM     26  N   UNL     1       0.345  -3.328   0.235  0.00  0.00    -0.219 NA
ATOM     27  C   UNL     1      -0.223  -2.100   0.303  0.00  0.00    +0.225 A 
ATOM     28  N   UNL     1       0.376  -0.889   0.312  0.00  0.00    -0.216 NA
ATOM     29  C   UNL     1       1.708  -1.024   0.239  0.00  0.00    +0.167 A 
BRANCH  22  23
ATOM     23  N   UNL     1       2.346  -4.634   0.092  0.00  0.00    -0.341 N 
ATOM     24  H   UNL     1       1.792  -5.480   0.093  0.00  0.00    +0.144 HD
ATOM     25  H   UNL     1       3.354  -4.682   0.039  0.00  0.00    +0.144 HD
ENDBRANCH  22  23
ENDBRANCH  17  18
BRANCH  16  30
ATOM     30  O   UNL     1       3.327   2.372  -1.750  0.00  0.00    -0.385 OA
ATOM     31  H   UNL     1       3.826   2.998  -1.198  0.00  0.00    +0.210 HD
ENDBRANCH  16  30
BRANCH  15  32
ATOM     32  O   UNL     1       2.205   4.275  -0.168  0.00  0.00    -0.386 OA
ATOM     33  H   UNL     1       1.654   5.023   0.122  0.00  0.00    +0.210 HD
ENDBRANCH  15  32
BRANCH  14  13
ATOM     13  C   UNL     1      -0.859   2.170   0.015  0.00  0.00    +0.206 C 
BRANCH  13  12
ATOM     12  O   UNL     1      -1.566   1.695   1.147  0.00  0.00    -0.284 OA
BRANCH  12   1
ATOM      1  P   UNL     1      -3.031   1.031   0.966  0.00  0.00    +0.483 P 
ATOM      2  O   UNL     1      -3.674   0.567   2.241  0.00  0.00    -0.227 OA
BRANCH   1   3
ATOM      3  O   UNL     1      -3.881   2.144   0.157  0.00  0.00    -0.302 OA
ATOM      4  H   UNL     1      -4.259   2.903   0.650  0.00  0.00    +0.222 HD
ENDBRANCH   1   3
BRANCH   1   5
ATOM      5  O   UNL     1      -2.814  -0.138  -0.130  0.00  0.00    -0.186 OA
BRANCH   5   6
ATOM      6  P   UNL     1      -3.875  -1.105  -0.873  0.00  0.00    +0.481 P 
ATOM      7  O   UNL     1      -4.681  -1.974   0.048  0.00  0.00    -0.227 OA
BRANCH   6   8
ATOM      8  O   UNL     1      -4.732  -0.086  -1.788  0.00  0.00    -0.302 OA
ATOM      9  H   UNL     1      -5.505  -0.429  -2.285  0.00  0.00    +0.222 HD
ENDBRANCH   6   8
BRANCH   6  10
ATOM     10  O   UNL     1      -2.961  -1.898  -1.944  0.00  0.00    -0.302 OA
ATOM     11  H   UNL     1      -3.365  -2.621  -2.470  0.00  0.00    +0.222 HD
ENDBRANCH   6  10
ENDBRANCH   5   6
ENDBRANCH   1   5
ENDBRANCH  12   1
ENDBRANCH  13  12
ENDBRANCH  14  13
TORSDOF 12
