REMARK  Name = 49806720
REMARK  7 active torsions:
REMARK  status: ('A' for Active; 'I' for Inactive)
REMARK    1  A    between atoms: N_3  and  C_13
REMARK    2  A    between atoms: N_4  and  C_7
REMARK    3  A    between atoms: C_12  and  C_22
REMARK    4  A    between atoms: C_12  and  C_23
REMARK    5  A    between atoms: C_20  and  C_29
REMARK    6  A    between atoms: C_29  and  C_33
REMARK    7  A    between atoms: C_35  and  C_36
REMARK                            x       y       z     vdW  Elec       q    Type
REMARK                         _______ _______ _______ _____ _____    ______ ____
ROOT
ATOM     10  C   UNL     1       1.453   0.481  -0.061  0.00  0.00    +0.033 A 
ATOM     11  C   UNL     1       1.024   1.802  -0.102  0.00  0.00    -0.026 A 
ATOM     14  C   UNL     1      -0.339   2.089  -0.107  0.00  0.00    +0.017 A 
ATOM     15  C   UNL     1      -1.285   1.052  -0.070  0.00  0.00    +0.027 A 
ATOM     16  C   UNL     1      -2.728   1.434  -0.078  0.00  0.00    +0.196 C 
ATOM     17  C   UNL     1      -3.684   0.352  -0.037  0.00  0.00    +0.051 A 
ATOM     18  C   UNL     1      -5.111   0.367  -0.030  0.00  0.00    +0.011 A 
ATOM     19  C   UNL     1      -6.092   1.381  -0.058  0.00  0.00    +0.012 A 
ATOM     20  C   UNL     1      -7.446   1.027  -0.039  0.00  0.00    +0.019 A 
ATOM     21  C   UNL     1      -7.833  -0.310   0.007  0.00  0.00    +0.054 A 
ATOM     24  C   UNL     1      -6.881  -1.333   0.035  0.00  0.00    +0.045 A 
ATOM     25  C   UNL     1      -5.531  -0.964   0.016  0.00  0.00    +0.049 A 
ATOM     26  N   UNL     1      -4.401  -1.749   0.035  0.00  0.00    -0.357 N 
ATOM     27  H   UNL     1      -4.403  -2.760   0.069  0.00  0.00    +0.166 HD
ATOM     28  C   UNL     1      -3.279  -0.963   0.004  0.00  0.00    +0.038 A 
ATOM     29  C   UNL     1      -1.863  -1.478   0.015  0.00  0.00    +0.032 C 
ATOM     30  C   UNL     1      -1.652  -2.381  -1.221  0.00  0.00    +0.022 C 
ATOM     31  C   UNL     1      -1.640  -2.299   1.305  0.00  0.00    +0.022 C 
ATOM     32  O   UNL     1      -3.069   2.610  -0.116  0.00  0.00    -0.287 OA
ATOM     33  C   UNL     1      -0.867  -0.300  -0.027  0.00  0.00    -0.023 A 
ATOM     34  C   UNL     1       0.519  -0.557  -0.024  0.00  0.00    +0.028 A 
ENDROOT
BRANCH  10   9
ATOM      6  C   UNL     1       5.604  -0.591  -0.128  0.00  0.00    +0.060 C 
ATOM      7  C   UNL     1       4.887  -0.311   1.194  0.00  0.00    +0.038 C 
ATOM      8  C   UNL     1       3.384  -0.571   1.077  0.00  0.00    +0.106 C 
ATOM      9  N   UNL     1       2.818   0.171  -0.055  0.00  0.00    -0.330 N 
ATOM     35  C   UNL     1       3.474  -0.022  -1.356  0.00  0.00    +0.106 C 
ATOM     36  C   UNL     1       4.976   0.245  -1.245  0.00  0.00    +0.038 C 
BRANCH   6   4
ATOM      1  O   UNL     1       9.782  -0.983  -0.024  0.00  0.00    -0.377 OA
ATOM      2  C   UNL     1       9.118  -0.685   1.204  0.00  0.00    +0.175 C 
ATOM      3  C   UNL     1       7.634  -1.025   1.102  0.00  0.00    +0.113 C 
ATOM      4  N   UNL     1       7.025  -0.273  -0.004  0.00  0.00    -0.295 NA
ATOM      5  C   UNL     1       7.736  -0.560  -1.258  0.00  0.00    +0.113 C 
ATOM     37  C   UNL     1       9.218  -0.232  -1.101  0.00  0.00    +0.175 C 
ENDBRANCH   6   4
ENDBRANCH  10   9
BRANCH  11  12
ATOM     12  C   UNL     1       2.000   2.932  -0.141  0.00  0.00    +0.033 C 
ATOM     13  C   UNL     1       2.623   3.204   1.224  0.00  0.00    +0.009 C 
ENDBRANCH  11  12
BRANCH  21  22
ATOM     22  C   UNL     1      -9.223  -0.644   0.025  0.00  0.00    +0.099 C 
ATOM     23  N   UNL     1     -10.351  -0.915   0.040  0.00  0.00    -0.191 NA
ENDBRANCH  21  22
TORSDOF 4
