REMARK  Name = 57390074
REMARK  11 active torsions:
REMARK  status: ('A' for Active; 'I' for Inactive)
REMARK    1  A    between atoms: P_2  and  C_24
REMARK    2  A    between atoms: P_2  and  C_28
REMARK    3  A    between atoms: P_2  and  C_29
REMARK    4  A    between atoms: O_3  and  C_21
REMARK    5  A    between atoms: O_3  and  C_27
REMARK    6  A    between atoms: N_5  and  C_16
REMARK    7  A    between atoms: N_6  and  C_11
REMARK    8  A    between atoms: N_6  and  C_17
REMARK    9  A    between atoms: N_6  and  C_18
REMARK   10  A    between atoms: N_7  and  C_23
REMARK   11  A    between atoms: N_8  and  C_26
REMARK                            x       y       z     vdW  Elec       q    Type
REMARK                         _______ _______ _______ _____ _____    ______ ____
ROOT
ATOM      1 CL   UNL     1      -6.472   1.516  -0.337  0.00  0.00    -0.078 Cl
ATOM      2  C   UNL     1      -4.811   1.947  -0.331  0.00  0.00    +0.099 A 
ATOM      3  C   UNL     1      -4.435   3.273  -0.395  0.00  0.00    +0.137 A 
ATOM      4  N   UNL     1      -3.152   3.689  -0.391  0.00  0.00    -0.221 NA
ATOM      5  C   UNL     1      -2.235   2.705  -0.319  0.00  0.00    +0.221 A 
ATOM      6  N   UNL     1      -2.473   1.382  -0.252  0.00  0.00    -0.198 NA
ATOM      7  N   UNL     1      -0.885   3.103  -0.313  0.00  0.00    -0.281 N 
ATOM      8  H   UNL     1      -0.772   4.108  -0.224  0.00  0.00    +0.155 HD
ATOM     26  C   UNL     1      -3.777   1.036  -0.260  0.00  0.00    +0.147 A 
ATOM     27  N   UNL     1      -4.088  -0.344  -0.193  0.00  0.00    -0.298 N 
ATOM     28  H   UNL     1      -4.928  -0.533   0.346  0.00  0.00    +0.154 HD
ENDROOT
BRANCH   7   9
ATOM      9  C   UNL     1       0.324   2.377  -0.249  0.00  0.00    +0.076 A 
ATOM     10  C   UNL     1       0.380   1.091  -0.785  0.00  0.00    +0.029 A 
ATOM     11  C   UNL     1       1.569   0.363  -0.729  0.00  0.00    +0.025 A 
ATOM     12  C   UNL     1       2.701   0.921  -0.136  0.00  0.00    +0.033 A 
ATOM     13  C   UNL     1       2.645   2.207   0.401  0.00  0.00    +0.070 A 
ATOM     23  C   UNL     1       1.457   2.935   0.345  0.00  0.00    +0.143 A 
BRANCH  12  14
ATOM     14  N   UNL     1       3.894   0.189  -0.079  0.00  0.00    -0.330 N 
ATOM     15  C   UNL     1       4.449  -0.096   1.251  0.00  0.00    +0.106 C 
ATOM     16  C   UNL     1       5.956  -0.336   1.164  0.00  0.00    +0.038 C 
ATOM     17  C   UNL     1       6.285  -1.420   0.133  0.00  0.00    +0.059 C 
ATOM     18  C   UNL     1       5.699  -1.032  -1.226  0.00  0.00    +0.038 C 
ATOM     22  C   UNL     1       4.192  -0.786  -1.134  0.00  0.00    +0.106 C 
BRANCH  17  19
ATOM     19  N   UNL     1       7.730  -1.605   0.020  0.00  0.00    -0.305 NA
ATOM     20  C   UNL     1       8.037  -2.642  -0.965  0.00  0.00    +0.104 C 
ATOM     21  C   UNL     1       8.305  -1.950   1.320  0.00  0.00    +0.104 C 
ENDBRANCH  17  19
ENDBRANCH  12  14
BRANCH  23  24
ATOM     24  O   UNL     1       1.422   4.190   0.875  0.00  0.00    -0.493 OA
ATOM     25  C   UNL     1       2.627   4.678   1.461  0.00  0.00    +0.277 C 
ENDBRANCH  23  24
ENDBRANCH   7   9
BRANCH  27  29
ATOM     29  C   UNL     1      -3.410  -1.491  -0.636  0.00  0.00    +0.043 A 
ATOM     30  C   UNL     1      -2.587  -1.409  -1.759  0.00  0.00    +0.024 A 
ATOM     31  C   UNL     1      -1.907  -2.541  -2.210  0.00  0.00    +0.002 A 
ATOM     32  C   UNL     1      -2.050  -3.755  -1.537  0.00  0.00    +0.001 A 
ATOM     33  C   UNL     1      -2.873  -3.837  -0.414  0.00  0.00    +0.013 A 
ATOM     34  C   UNL     1      -3.553  -2.705   0.037  0.00  0.00    +0.032 A 
BRANCH  34  35
ATOM     35  P   UNL     1      -4.589  -2.847   1.466  0.00  0.00    +0.112 P 
ATOM     36  C   UNL     1      -4.336  -4.466   2.204  0.00  0.00    +0.086 C 
ATOM     37  C   UNL     1      -3.983  -1.726   2.732  0.00  0.00    +0.086 C 
ATOM     38  O   UNL     1      -6.058  -2.615   1.240  0.00  0.00    -0.317 OA
ENDBRANCH  34  35
ENDBRANCH  27  29
TORSDOF 6
