REMARK  Name = 25134326
REMARK  11 active torsions:
REMARK  status: ('A' for Active; 'I' for Inactive)
REMARK    1  A    between atoms: S_1  and  C_31
REMARK    2  A    between atoms: S_1  and  C_32
REMARK    3  A    between atoms: O_2  and  C_26
REMARK    4  A    between atoms: O_2  and  C_29
REMARK    5  A    between atoms: N_5  and  C_13
REMARK    6  A    between atoms: N_6  and  C_22
REMARK    7  A    between atoms: N_7  and  C_23
REMARK    8  A    between atoms: N_8  and  C_28
REMARK    9  A    between atoms: N_11  and  C_33
REMARK   10  A    between atoms: C_31  and  C_34
REMARK   11  A    between atoms: C_31  and  C_35
REMARK                            x       y       z     vdW  Elec       q    Type
REMARK                         _______ _______ _______ _____ _____    ______ ____
ROOT
ATOM      8  N   UNL     1       4.829   0.268  -0.653  0.00  0.00    -0.282 N 
ATOM      9  H   UNL     1       5.803   0.549  -0.685  0.00  0.00    +0.155 HD
ATOM     10  C   UNL     1       4.682  -1.082  -0.268  0.00  0.00    +0.224 A 
ATOM     11  N   UNL     1       5.811  -1.794  -0.122  0.00  0.00    -0.203 NA
ATOM     12  C   UNL     1       5.594  -3.067   0.245  0.00  0.00    +0.228 A 
ATOM     13  N   UNL     1       4.403  -3.646   0.465  0.00  0.00    -0.203 NA
ATOM     14  C   UNL     1       3.365  -2.814   0.282  0.00  0.00    +0.224 A 
ATOM     15  N   UNL     1       2.080  -3.348   0.495  0.00  0.00    -0.281 N 
ATOM     16  H   UNL     1       2.091  -4.354   0.631  0.00  0.00    +0.155 HD
ATOM     38  N   UNL     1       3.428  -1.523  -0.083  0.00  0.00    -0.181 NA
ENDROOT
BRANCH   8   7
ATOM      2  C   UNL     1       4.225   2.632  -0.666  0.00  0.00    +0.110 A 
ATOM      3  C   UNL     1       3.287   3.633  -0.917  0.00  0.00    +0.029 A 
ATOM      4  C   UNL     1       2.021   3.297  -1.399  0.00  0.00    +0.002 A 
ATOM      5  C   UNL     1       1.694   1.961  -1.629  0.00  0.00    +0.002 A 
ATOM      6  C   UNL     1       2.633   0.960  -1.377  0.00  0.00    +0.025 A 
ATOM      7  C   UNL     1       3.898   1.296  -0.896  0.00  0.00    +0.059 A 
BRANCH   2   1
ATOM      1  S   UNL     1       5.804   3.095  -0.065  0.00  0.00    +0.001 S 
ATOM     42  O   UNL     1       5.878   4.547  -0.017  0.00  0.00    -0.169 OA
ATOM     43  O   UNL     1       6.800   2.340  -0.809  0.00  0.00    -0.169 OA
BRANCH   1  39
ATOM     39  C   UNL     1       5.817   2.516   1.616  0.00  0.00    +0.130 C 
ATOM     40  C   UNL     1       7.160   2.813   2.265  0.00  0.00    +0.032 C 
ATOM     41  C   UNL     1       4.671   3.142   2.398  0.00  0.00    +0.032 C 
ENDBRANCH   1  39
ENDBRANCH   2   1
ENDBRANCH   8   7
BRANCH  15  17
ATOM     17  C   UNL     1       0.786  -2.791   0.401  0.00  0.00    +0.076 A 
ATOM     18  C   UNL     1       0.605  -1.432   0.661  0.00  0.00    +0.029 A 
ATOM     19  C   UNL     1      -0.667  -0.868   0.572  0.00  0.00    +0.025 A 
ATOM     20  C   UNL     1      -1.760  -1.664   0.224  0.00  0.00    +0.033 A 
ATOM     21  C   UNL     1      -1.579  -3.022  -0.036  0.00  0.00    +0.070 A 
ATOM     35  C   UNL     1      -0.306  -3.586   0.053  0.00  0.00    +0.143 A 
BRANCH  20  22
ATOM     22  N   UNL     1      -3.037  -1.098   0.135  0.00  0.00    -0.330 N 
ATOM     23  C   UNL     1      -4.213  -1.923   0.432  0.00  0.00    +0.106 C 
ATOM     24  C   UNL     1      -5.397  -1.045   0.841  0.00  0.00    +0.038 C 
ATOM     25  C   UNL     1      -5.672   0.041  -0.201  0.00  0.00    +0.060 C 
ATOM     26  C   UNL     1      -4.407   0.873  -0.425  0.00  0.00    +0.038 C 
ATOM     34  C   UNL     1      -3.229  -0.011  -0.835  0.00  0.00    +0.106 C 
BRANCH  25  27
ATOM     27  N   UNL     1      -6.778   0.888   0.240  0.00  0.00    -0.297 NA
ATOM     28  C   UNL     1      -7.972   0.082   0.522  0.00  0.00    +0.100 C 
ATOM     29  C   UNL     1      -9.133   0.970   0.983  0.00  0.00    +0.099 C 
ATOM     30  N   UNL     1      -9.435   1.997  -0.022  0.00  0.00    -0.303 NA
ATOM     31  C   UNL     1     -10.542   2.844   0.418  0.00  0.00    +0.105 C 
ATOM     32  C   UNL     1      -8.241   2.804  -0.304  0.00  0.00    +0.099 C 
ATOM     33  C   UNL     1      -7.079   1.917  -0.763  0.00  0.00    +0.100 C 
ENDBRANCH  25  27
ENDBRANCH  20  22
BRANCH  35  36
ATOM     36  O   UNL     1      -0.150  -4.915  -0.205  0.00  0.00    -0.493 OA
ATOM     37  C   UNL     1       0.126  -5.285  -1.554  0.00  0.00    +0.277 C 
ENDBRANCH  35  36
ENDBRANCH  15  17
TORSDOF 7
