REMARK  Name = 53401173
REMARK  10 active torsions:
REMARK  status: ('A' for Active; 'I' for Inactive)
REMARK    1  A    between atoms: O_3  and  C_27
REMARK    2  A    between atoms: N_6  and  C_11
REMARK    3  A    between atoms: N_8  and  C_33
REMARK    4  A    between atoms: C_11  and  C_14
REMARK    5  A    between atoms: C_15  and  C_16
REMARK    6  A    between atoms: C_20  and  C_22
REMARK    7  A    between atoms: C_20  and  C_29
REMARK    8  A    between atoms: C_20  and  C_30
REMARK    9  A    between atoms: C_25  and  C_32
REMARK   10  A    between atoms: C_33  and  C_34
REMARK                            x       y       z     vdW  Elec       q    Type
REMARK                         _______ _______ _______ _____ _____    ______ ____
ROOT
ATOM     11  C   UNL     1       2.193  -0.180  -0.169  0.00  0.00    +0.059 A 
ATOM     12  C   UNL     1       3.408  -0.739  -0.256  0.00  0.00    +0.145 A 
ATOM     19  N   UNL     1       4.361   0.233  -0.287  0.00  0.00    -0.215 N 
ATOM     20  H   UNL     1       5.324   0.087  -0.557  0.00  0.00    +0.207 HD
ATOM     21  O   UNL     1       3.816   1.514  -0.258  0.00  0.00    -0.378 OA
ATOM     22  C   UNL     1       2.439   1.258  -0.162  0.00  0.00    +0.176 A 
ATOM     23  C   UNL     1       1.541   2.244  -0.075  0.00  0.00    +0.068 C 
ATOM     24  C   UNL     1       2.032   3.655  -0.087  0.00  0.00    +0.193 C 
ATOM     25  C   UNL     1       0.984   4.704   0.013  0.00  0.00    +0.097 C 
ATOM     26  C   UNL     1      -0.314   4.383   0.107  0.00  0.00    +0.124 C 
ATOM     27  C   UNL     1      -0.779   2.997   0.116  0.00  0.00    -0.002 C 
ATOM     33  O   UNL     1       3.215   3.963  -0.173  0.00  0.00    -0.287 OA
ATOM     34  C   UNL     1       0.118   1.996   0.029  0.00  0.00    +0.023 C 
ENDROOT
BRANCH  11   9
ATOM      6  C   UNL     1      -1.525  -2.236  -0.026  0.00  0.00    -0.033 A 
ATOM      7  C   UNL     1      -0.860  -1.915   1.157  0.00  0.00    +0.005 A 
ATOM      8  C   UNL     1       0.360  -1.240   1.110  0.00  0.00    +0.009 A 
ATOM      9  C   UNL     1       0.914  -0.886  -0.120  0.00  0.00    -0.012 A 
ATOM     10  C   UNL     1       0.249  -1.207  -1.303  0.00  0.00    +0.009 A 
ATOM     35  C   UNL     1      -0.971  -1.882  -1.256  0.00  0.00    +0.005 A 
BRANCH   6   5
ATOM      5  C   UNL     1      -2.830  -2.956   0.024  0.00  0.00    +0.119 C 
BRANCH   5   4
ATOM      1  O   UNL     1      -6.624  -1.176   0.247  0.00  0.00    -0.377 OA
ATOM      2  C   UNL     1      -5.508  -0.403   0.690  0.00  0.00    +0.175 C 
ATOM      3  C   UNL     1      -4.314  -1.310   0.977  0.00  0.00    +0.113 C 
ATOM      4  N   UNL     1      -3.965  -2.071  -0.231  0.00  0.00    -0.294 NA
ATOM     36  C   UNL     1      -5.129  -2.837  -0.697  0.00  0.00    +0.113 C 
ATOM     37  C   UNL     1      -6.303  -1.894  -0.945  0.00  0.00    +0.175 C 
ENDBRANCH   5   4
ENDBRANCH   6   5
ENDBRANCH  11   9
BRANCH  12  13
ATOM     13  C   UNL     1       3.753  -2.150  -0.338  0.00  0.00    +0.264 C 
ATOM     14  N   UNL     1       4.987  -2.448   0.224  0.00  0.00    -0.310 N 
ATOM     15  H   UNL     1       5.529  -1.703   0.651  0.00  0.00    +0.149 HD
ATOM     18  O   UNL     1       2.993  -2.969  -0.866  0.00  0.00    -0.268 OA
BRANCH  14  16
ATOM     16  C   UNL     1       5.550  -3.779   0.267  0.00  0.00    +0.101 C 
ATOM     17  C   UNL     1       4.956  -4.597   1.394  0.00  0.00    +0.024 C 
ENDBRANCH  14  16
ENDBRANCH  12  13
BRANCH  27  28
ATOM     28  C   UNL     1      -2.246   2.691   0.222  0.00  0.00    +0.016 C 
ATOM     29  C   UNL     1      -2.716   1.940  -1.018  0.00  0.00    +0.012 C 
ATOM     30  C   UNL     1      -2.539   1.895   1.490  0.00  0.00    +0.012 C 
ENDBRANCH  27  28
BRANCH  26  31
ATOM     31  O   UNL     1      -1.247   5.402   0.198  0.00  0.00    -0.506 OA
ATOM     32  H   UNL     1      -0.782   6.256   0.178  0.00  0.00    +0.292 HD
ENDBRANCH  26  31
TORSDOF 7
