REMARK  Name = 56599293
REMARK  6 active torsions:
REMARK  status: ('A' for Active; 'I' for Inactive)
REMARK    1  A    between atoms: O_2  and  C_17
REMARK    2  A    between atoms: O_2  and  C_28
REMARK    3  A    between atoms: N_3  and  C_14
REMARK    4  A    between atoms: N_4  and  C_9
REMARK    5  A    between atoms: N_5  and  C_19
REMARK    6  A    between atoms: C_20  and  C_24
REMARK                            x       y       z     vdW  Elec       q    Type
REMARK                         _______ _______ _______ _____ _____    ______ ____
ROOT
ATOM      1 CL   UNL     1      -5.814   1.643  -0.296  0.00  0.00    -0.080 Cl
ATOM      2  C   UNL     1      -4.135   1.903  -0.050  0.00  0.00    +0.085 A 
ATOM      3  C   UNL     1      -3.675   3.137   0.360  0.00  0.00    +0.136 A 
ATOM      4  N   UNL     1      -2.373   3.419   0.575  0.00  0.00    -0.221 NA
ATOM      5  C   UNL     1      -1.527   2.394   0.359  0.00  0.00    +0.220 A 
ATOM      6  N   UNL     1      -1.849   1.149  -0.041  0.00  0.00    -0.213 NA
ATOM      7  N   UNL     1      -0.160   2.651   0.573  0.00  0.00    -0.281 N 
ATOM      8  H   UNL     1       0.034   3.635   0.736  0.00  0.00    +0.155 HD
ATOM     26  C   UNL     1      -3.167   0.937  -0.236  0.00  0.00    +0.096 A 
ENDROOT
BRANCH  26  27
ATOM     27  C   UNL     1      -3.493  -0.397  -0.663  0.00  0.00    +0.027 A 
ATOM     28  C   UNL     1      -3.547  -0.753  -1.990  0.00  0.00    +0.093 A 
ATOM     29  N   UNL     1      -3.880  -2.079  -2.058  0.00  0.00    -0.360 N 
ATOM     30  H   UNL     1      -3.990  -2.606  -2.914  0.00  0.00    +0.165 HD
ATOM     31  C   UNL     1      -4.044  -2.593  -0.791  0.00  0.00    +0.047 A 
ATOM     32  C   UNL     1      -4.381  -3.887  -0.377  0.00  0.00    +0.026 A 
ATOM     33  C   UNL     1      -4.477  -4.121   0.998  0.00  0.00    +0.002 A 
ATOM     34  C   UNL     1      -4.244  -3.101   1.918  0.00  0.00    +0.001 A 
ATOM     35  C   UNL     1      -3.907  -1.812   1.489  0.00  0.00    +0.010 A 
ATOM     36  C   UNL     1      -3.805  -1.552   0.108  0.00  0.00    +0.009 A 
ENDBRANCH  26  27
BRANCH   7   9
ATOM      9  C   UNL     1       0.994   1.847   0.453  0.00  0.00    +0.076 A 
ATOM     10  C   UNL     1       0.897   0.473   0.675  0.00  0.00    +0.029 A 
ATOM     11  C   UNL     1       2.029  -0.334   0.560  0.00  0.00    +0.025 A 
ATOM     12  C   UNL     1       3.258   0.233   0.222  0.00  0.00    +0.033 A 
ATOM     13  C   UNL     1       3.355   1.607  -0.001  0.00  0.00    +0.070 A 
ATOM     23  C   UNL     1       2.223   2.414   0.115  0.00  0.00    +0.143 A 
BRANCH  12  14
ATOM     14  N   UNL     1       4.394  -0.577   0.106  0.00  0.00    -0.330 N 
ATOM     15  C   UNL     1       5.528  -0.283   0.994  0.00  0.00    +0.106 C 
ATOM     16  C   UNL     1       6.834  -0.794   0.386  0.00  0.00    +0.037 C 
ATOM     17  C   UNL     1       6.730  -2.277   0.020  0.00  0.00    +0.054 C 
ATOM     18  C   UNL     1       5.548  -2.492  -0.929  0.00  0.00    +0.037 C 
ATOM     22  C   UNL     1       4.245  -1.973  -0.320  0.00  0.00    +0.106 C 
BRANCH  17  19
ATOM     19  N   UNL     1       7.965  -2.743  -0.608  0.00  0.00    -0.327 NA
ATOM     20  H   UNL     1       8.742  -2.631   0.041  0.00  0.00    +0.118 HD
ATOM     21  H   UNL     1       7.895  -3.740  -0.806  0.00  0.00    +0.118 HD
ENDBRANCH  17  19
ENDBRANCH  12  14
BRANCH  23  24
ATOM     24  O   UNL     1       2.338   3.753  -0.107  0.00  0.00    -0.493 OA
ATOM     25  C   UNL     1       2.138   4.208  -1.443  0.00  0.00    +0.277 C 
ENDBRANCH  23  24
ENDBRANCH   7   9
TORSDOF 5
