REMARK  Name = 57379345
REMARK  12 active torsions:
REMARK  status: ('A' for Active; 'I' for Inactive)
REMARK    1  A    between atoms: S_2  and  C_24
REMARK    2  A    between atoms: S_2  and  C_26
REMARK    3  A    between atoms: O_3  and  C_19
REMARK    4  A    between atoms: O_3  and  C_23
REMARK    5  A    between atoms: N_7  and  C_21
REMARK    6  A    between atoms: N_8  and  C_29
REMARK    7  A    between atoms: C_11  and  C_16
REMARK    8  A    between atoms: C_17  and  C_22
REMARK    9  A    between atoms: C_23  and  C_27
REMARK   10  A    between atoms: C_23  and  C_28
REMARK   11  A    between atoms: C_24  and  C_30
REMARK   12  A    between atoms: C_24  and  C_31
REMARK                            x       y       z     vdW  Elec       q    Type
REMARK                         _______ _______ _______ _____ _____    ______ ____
ROOT
ATOM      1 CL   UNL     1       5.140   2.933  -0.878  0.00  0.00    -0.078 Cl
ATOM      2  C   UNL     1       3.430   2.797  -0.860  0.00  0.00    +0.099 A 
ATOM      3  C   UNL     1       2.640   3.919  -1.009  0.00  0.00    +0.137 A 
ATOM      4  N   UNL     1       1.291   3.892  -1.009  0.00  0.00    -0.221 NA
ATOM      5  C   UNL     1       0.747   2.670  -0.850  0.00  0.00    +0.221 A 
ATOM      6  N   UNL     1       1.405   1.505  -0.695  0.00  0.00    -0.198 NA
ATOM      7  N   UNL     1      -0.658   2.604  -0.844  0.00  0.00    -0.281 N 
ATOM      8  H   UNL     1      -1.095   3.521  -0.819  0.00  0.00    +0.155 HD
ATOM     27  C   UNL     1       2.751   1.606  -0.706  0.00  0.00    +0.147 A 
ATOM     28  N   UNL     1       3.497   0.412  -0.546  0.00  0.00    -0.297 N 
ATOM     29  H   UNL     1       4.340   0.554   0.001  0.00  0.00    +0.154 HD
ENDROOT
BRANCH   7   9
ATOM      9  C   UNL     1      -1.563   1.529  -0.705  0.00  0.00    +0.076 A 
ATOM     10  C   UNL     1      -1.194   0.260  -1.151  0.00  0.00    +0.030 A 
ATOM     11  C   UNL     1      -2.079  -0.810  -1.019  0.00  0.00    -0.045 A 
ATOM     12  C   UNL     1      -1.661  -2.160  -1.505  0.00  0.00    +0.044 C 
ATOM     13  C   UNL     1      -3.333  -0.612  -0.442  0.00  0.00    -0.038 A 
ATOM     14  C   UNL     1      -3.702   0.657   0.005  0.00  0.00    +0.051 A 
ATOM     22  C   UNL     1      -2.818   1.727  -0.127  0.00  0.00    +0.142 A 
BRANCH  13  15
ATOM     15  C   UNL     1      -4.311  -1.761  -0.287  0.00  0.00    +0.022 C 
ATOM     16  C   UNL     1      -4.643  -2.050   1.186  0.00  0.00    +0.023 C 
ATOM     17  C   UNL     1      -5.664  -3.182   1.306  0.00  0.00    +0.081 C 
ATOM     18  N   UNL     1      -6.880  -2.890   0.547  0.00  0.00    -0.316 NA
ATOM     19  H   UNL     1      -7.308  -2.043   0.922  0.00  0.00    +0.122 HD
ATOM     20  C   UNL     1      -6.590  -2.685  -0.872  0.00  0.00    +0.081 C 
ATOM     21  C   UNL     1      -5.607  -1.533  -1.082  0.00  0.00    +0.023 C 
ENDBRANCH  13  15
BRANCH  22  23
ATOM     23  O   UNL     1      -3.197   2.959   0.317  0.00  0.00    -0.488 OA
BRANCH  23  24
ATOM     24  C   UNL     1      -3.515   3.079   1.702  0.00  0.00    +0.167 C 
ATOM     25  C   UNL     1      -4.966   3.510   1.847  0.00  0.00    +0.051 C 
ATOM     26  C   UNL     1      -2.561   4.070   2.350  0.00  0.00    +0.051 C 
ENDBRANCH  23  24
ENDBRANCH  22  23
ENDBRANCH   7   9
BRANCH  28  30
ATOM     30  C   UNL     1       3.234  -0.923  -0.893  0.00  0.00    +0.058 A 
ATOM     31  C   UNL     1       2.434  -1.186  -2.005  0.00  0.00    +0.025 A 
ATOM     32  C   UNL     1       2.158  -2.504  -2.370  0.00  0.00    +0.002 A 
ATOM     33  C   UNL     1       2.683  -3.559  -1.623  0.00  0.00    +0.002 A 
ATOM     34  C   UNL     1       3.484  -3.296  -0.511  0.00  0.00    +0.029 A 
ATOM     35  C   UNL     1       3.759  -1.978  -0.146  0.00  0.00    +0.110 A 
BRANCH  35  36
ATOM     36  S   UNL     1       4.766  -1.688   1.256  0.00  0.00    +0.001 S 
ATOM     40  O   UNL     1       5.724  -0.651   0.907  0.00  0.00    -0.169 OA
ATOM     41  O   UNL     1       5.234  -2.967   1.767  0.00  0.00    -0.169 OA
BRANCH  36  37
ATOM     37  C   UNL     1       3.649  -1.021   2.467  0.00  0.00    +0.130 C 
ATOM     38  C   UNL     1       2.516  -2.000   2.735  0.00  0.00    +0.032 C 
ATOM     39  C   UNL     1       4.400  -0.675   3.744  0.00  0.00    +0.032 C 
ENDBRANCH  36  37
ENDBRANCH  35  36
ENDBRANCH  28  30
TORSDOF 7
