REMARK  Name = 11626560
REMARK  7 active torsions:
REMARK  status: ('A' for Active; 'I' for Inactive)
REMARK    1  A    between atoms: O_4  and  C_21
REMARK    2  A    between atoms: O_4  and  C_22
REMARK    3  A    between atoms: N_5  and  C_10
REMARK    4  A    between atoms: N_9  and  C_23
REMARK    5  A    between atoms: C_16  and  C_18
REMARK    6  A    between atoms: C_22  and  C_24
REMARK    7  A    between atoms: C_22  and  C_25
REMARK                            x       y       z     vdW  Elec       q    Type
REMARK                         _______ _______ _______ _____ _____    ______ ____
ROOT
ATOM     13  C   UNL     1      -2.435  -1.602  -0.407  0.00  0.00    +0.161 A 
ATOM     14  C   UNL     1      -2.797  -2.813   0.162  0.00  0.00    +0.158 A 
ATOM     18  N   UNL     1      -1.914  -3.716   0.645  0.00  0.00    -0.236 NA
ATOM     19  C   UNL     1      -0.606  -3.386   0.551  0.00  0.00    +0.121 A 
ATOM     20  C   UNL     1      -0.139  -2.202   0.001  0.00  0.00    +0.007 A 
ATOM     33  C   UNL     1      -1.081  -1.299  -0.485  0.00  0.00    +0.059 A 
ENDROOT
BRANCH  20  21
ATOM     21  C   UNL     1       1.261  -1.918  -0.066  0.00  0.00    +0.021 A 
ATOM     22  C   UNL     1       2.377  -2.769  -0.186  0.00  0.00    +0.143 A 
ATOM     23  N   UNL     1       3.533  -2.101  -0.213  0.00  0.00    -0.179 NA
ATOM     24  N   UNL     1       3.145  -0.821  -0.111  0.00  0.00    -0.268 N 
ATOM     32  C   UNL     1       1.797  -0.654  -0.020  0.00  0.00    +0.117 A 
BRANCH  24  25
ATOM     25  C   UNL     1       4.153   0.244  -0.104  0.00  0.00    +0.110 C 
ATOM     26  C   UNL     1       5.103   0.155   1.101  0.00  0.00    +0.042 C 
ATOM     27  C   UNL     1       6.149   1.269   1.055  0.00  0.00    +0.083 C 
ATOM     28  N   UNL     1       6.893   1.255  -0.205  0.00  0.00    -0.316 NA
ATOM     29  H   UNL     1       7.382   0.363  -0.290  0.00  0.00    +0.122 HD
ATOM     30  C   UNL     1       6.004   1.420  -1.355  0.00  0.00    +0.083 C 
ATOM     31  C   UNL     1       4.952   0.313  -1.415  0.00  0.00    +0.042 C 
ENDBRANCH  24  25
ENDBRANCH  20  21
BRANCH  14  15
ATOM     15  N   UNL     1      -4.177  -3.123   0.245  0.00  0.00    -0.340 N 
ATOM     16  H   UNL     1      -4.427  -4.014   0.655  0.00  0.00    +0.144 HD
ATOM     17  H   UNL     1      -4.803  -2.714  -0.439  0.00  0.00    +0.144 HD
ENDBRANCH  14  15
BRANCH  13  12
ATOM     12  O   UNL     1      -3.355  -0.721  -0.880  0.00  0.00    -0.481 OA
BRANCH  12  10
ATOM     10  C   UNL     1      -3.854   0.255   0.035  0.00  0.00    +0.204 C 
ATOM     11  C   UNL     1      -5.298   0.591  -0.320  0.00  0.00    +0.057 C 
BRANCH  10   9
ATOM      1 CL   UNL     1      -2.383   0.951   2.611  0.00  0.00    -0.080 Cl
ATOM      2  C   UNL     1      -2.263   1.847   1.139  0.00  0.00    +0.084 A 
ATOM      3  C   UNL     1      -1.439   2.972   1.104  0.00  0.00    +0.142 A 
ATOM      4  C   UNL     1      -1.323   3.715  -0.071  0.00  0.00    +0.041 A 
ATOM      5  C   UNL     1      -2.029   3.332  -1.211  0.00  0.00    +0.023 A 
ATOM      6  C   UNL     1      -2.852   2.207  -1.177  0.00  0.00    +0.049 A 
ATOM      7 CL   UNL     1      -3.709   1.770  -2.611  0.00  0.00    -0.083 Cl
ATOM      8  F   UNL     1      -0.752   3.355   2.190  0.00  0.00    -0.204 F 
ATOM      9  C   UNL     1      -2.962   1.474  -0.002  0.00  0.00    +0.032 A 
ENDBRANCH  10   9
ENDBRANCH  12  10
ENDBRANCH  13  12
TORSDOF 6
