REMARK  Name = 71731823
REMARK  5 active torsions:
REMARK  status: ('A' for Active; 'I' for Inactive)
REMARK    1  A    between atoms: N_4  and  C_24
REMARK    2  A    between atoms: N_5  and  C_29
REMARK    3  A    between atoms: N_8  and  C_26
REMARK    4  A    between atoms: C_13  and  C_21
REMARK    5  A    between atoms: C_18  and  C_30
REMARK                            x       y       z     vdW  Elec       q    Type
REMARK                         _______ _______ _______ _____ _____    ______ ____
ROOT
ATOM      1  F   UNL     1       4.751   0.333  -2.616  0.00  0.00    -0.205 F 
ATOM      2  C   UNL     1       3.917  -0.252  -1.747  0.00  0.00    +0.124 A 
ATOM      3  C   UNL     1       3.409  -1.519  -2.016  0.00  0.00    +0.039 A 
ATOM      4  C   UNL     1       2.539  -2.124  -1.113  0.00  0.00    +0.016 A 
ATOM      5  C   UNL     1       2.162  -1.452   0.060  0.00  0.00    +0.044 A 
ATOM      6  C   UNL     1       1.268  -2.179   0.986  0.00  0.00    +0.247 C 
ATOM      7  N   UNL     1      -0.051  -2.474   0.581  0.00  0.00    -0.295 N 
ATOM      8  C   UNL     1      -0.848  -3.345   1.444  0.00  0.00    +0.132 C 
ATOM      9  C   UNL     1      -0.676  -2.032  -0.686  0.00  0.00    +0.165 C 
ATOM     10  C   UNL     1      -2.013  -1.384  -0.486  0.00  0.00    +0.089 A 
ATOM     11  C   UNL     1      -2.316  -0.006  -0.254  0.00  0.00    +0.044 A 
ATOM     12  C   UNL     1      -3.690   0.051  -0.235  0.00  0.00    +0.146 A 
ATOM     15  N   UNL     1      -4.119  -1.227  -0.434  0.00  0.00    -0.256 N 
ATOM     16  C   UNL     1      -5.488  -1.688  -0.485  0.00  0.00    +0.174 C 
ATOM     17  C   UNL     1      -1.439   1.130  -0.087  0.00  0.00    +0.008 A 
ATOM     18  C   UNL     1      -1.615   2.331  -0.759  0.00  0.00    +0.121 A 
ATOM     19  N   UNL     1      -0.741   3.363  -0.694  0.00  0.00    -0.236 NA
ATOM     20  C   UNL     1       0.378   3.169   0.043  0.00  0.00    +0.158 A 
ATOM     21  C   UNL     1       0.654   2.006   0.744  0.00  0.00    +0.161 A 
ATOM     22  O   UNL     1       1.862   1.915   1.374  0.00  0.00    -0.481 OA
ATOM     23  C   UNL     1       2.359   0.585   1.647  0.00  0.00    +0.201 C 
ATOM     24  C   UNL     1       3.607   0.750   2.520  0.00  0.00    +0.057 C 
ATOM     28  C   UNL     1      -0.313   1.011   0.723  0.00  0.00    +0.059 A 
ATOM     29  N   UNL     1      -3.130  -2.118  -0.603  0.00  0.00    -0.173 NA
ATOM     30  O   UNL     1       1.764  -2.504   2.064  0.00  0.00    -0.270 OA
ATOM     31  C   UNL     1       2.695  -0.182   0.370  0.00  0.00    +0.007 A 
ATOM     32  C   UNL     1       3.566   0.406  -0.566  0.00  0.00    +0.046 A 
ENDROOT
BRANCH  20  25
ATOM     25  N   UNL     1       1.332   4.217   0.077  0.00  0.00    -0.340 N 
ATOM     26  H   UNL     1       1.109   5.060  -0.438  0.00  0.00    +0.144 HD
ATOM     27  H   UNL     1       1.932   4.292   0.889  0.00  0.00    +0.144 HD
ENDBRANCH  20  25
BRANCH  12  13
ATOM     13  C   UNL     1      -4.558   1.158  -0.015  0.00  0.00    +0.119 C 
ATOM     14  N   UNL     1      -5.266   2.060   0.164  0.00  0.00    -0.189 NA
ENDBRANCH  12  13
TORSDOF 2
