REMARK  Name = 25141092
REMARK  7 active torsions:
REMARK  status: ('A' for Active; 'I' for Inactive)
REMARK    1  A    between atoms: N_5  and  C_18
REMARK    2  A    between atoms: N_6  and  C_25
REMARK    3  A    between atoms: N_7  and  C_11
REMARK    4  A    between atoms: N_7  and  C_21
REMARK    5  A    between atoms: C_23  and  C_27
REMARK    6  A    between atoms: C_32  and  C_33
REMARK    7  A    between atoms: C_33  and  C_36
REMARK                            x       y       z     vdW  Elec       q    Type
REMARK                         _______ _______ _______ _____ _____    ______ ____
ROOT
ATOM      8  C   UNL     1       4.260   1.017  -1.557  0.00  0.00    -0.042 A 
ATOM      9  C   UNL     1       5.254   1.949  -1.253  0.00  0.00    +0.006 A 
ATOM     10  C   UNL     1       4.955   3.124  -0.556  0.00  0.00    +0.028 A 
ATOM     11  C   UNL     1       3.623   3.317  -0.183  0.00  0.00    +0.068 A 
ATOM     12  C   UNL     1       2.614   2.406  -0.473  0.00  0.00    +0.042 A 
ATOM     13  C   UNL     1       1.450   2.986   0.076  0.00  0.00    +0.155 A 
ATOM     14  N   UNL     1       1.685   4.160   0.665  0.00  0.00    -0.157 NA
ATOM     15  N   UNL     1       0.160   2.404   0.023  0.00  0.00    -0.264 N 
ATOM     16  H   UNL     1       0.132   1.504  -0.453  0.00  0.00    +0.157 HD
ATOM     17  C   UNL     1      -1.047   2.918   0.512  0.00  0.00    +0.251 C 
ATOM     39  O   UNL     1      -1.179   4.007   1.091  0.00  0.00    -0.270 OA
ATOM     40  N   UNL     1       3.006   4.335   0.493  0.00  0.00    -0.275 N 
ATOM     41  H   UNL     1       3.429   5.177   0.864  0.00  0.00    +0.189 HD
ATOM     42  C   UNL     1       2.930   1.230  -1.173  0.00  0.00    +0.017 A 
ENDROOT
BRANCH  17  18
ATOM     18  C   UNL     1      -2.227   2.093   0.282  0.00  0.00    +0.058 A 
ATOM     19  C   UNL     1      -3.279   2.624  -0.463  0.00  0.00    +0.017 A 
ATOM     20  C   UNL     1      -4.421   1.859  -0.701  0.00  0.00    +0.024 A 
ATOM     21  C   UNL     1      -4.510   0.563  -0.193  0.00  0.00    +0.032 A 
ATOM     22  C   UNL     1      -3.458   0.032   0.553  0.00  0.00    +0.046 A 
ATOM     30  C   UNL     1      -2.316   0.797   0.791  0.00  0.00    +0.041 A 
BRANCH  21  23
ATOM     23  N   UNL     1      -5.656  -0.204  -0.430  0.00  0.00    -0.327 N 
ATOM     24  C   UNL     1      -6.019  -0.487  -1.825  0.00  0.00    +0.120 C 
ATOM     25  C   UNL     1      -7.502  -0.853  -1.929  0.00  0.00    +0.103 C 
ATOM     26  N   UNL     1      -7.839  -1.951  -1.015  0.00  0.00    -0.302 NA
ATOM     27  C   UNL     1      -9.244  -2.329  -1.163  0.00  0.00    +0.105 C 
ATOM     28  C   UNL     1      -7.556  -1.553   0.370  0.00  0.00    +0.103 C 
ATOM     29  C   UNL     1      -6.075  -1.209   0.551  0.00  0.00    +0.120 C 
ENDBRANCH  21  23
BRANCH  30  31
ATOM     31  N   UNL     1      -1.262   0.242   1.550  0.00  0.00    -0.340 N 
ATOM     32  H   UNL     1      -0.418   0.791   1.664  0.00  0.00    +0.146 HD
BRANCH  31  33
ATOM     33  C   UNL     1      -1.310  -1.099   2.098  0.00  0.00    +0.075 C 
ATOM     34  C   UNL     1      -0.325  -1.220   3.262  0.00  0.00    +0.050 C 
ATOM     35  C   UNL     1       1.119  -1.307   2.778  0.00  0.00    +0.161 C 
ATOM     36  O   UNL     1       1.275  -2.370   1.840  0.00  0.00    -0.380 OA
ATOM     37  C   UNL     1       0.488  -2.170   0.667  0.00  0.00    +0.161 C 
ATOM     38  C   UNL     1      -0.998  -2.127   1.009  0.00  0.00    +0.050 C 
ENDBRANCH  31  33
ENDBRANCH  30  31
ENDBRANCH  17  18
BRANCH   8   7
ATOM      7  C   UNL     1       4.618  -0.226  -2.304  0.00  0.00    +0.070 C 
BRANCH   7   6
ATOM      1  F   UNL     1       6.529  -2.605   1.516  0.00  0.00    -0.205 F 
ATOM      2  C   UNL     1       5.694  -2.599   0.468  0.00  0.00    +0.126 A 
ATOM      3  C   UNL     1       4.923  -3.726   0.184  0.00  0.00    +0.076 A 
ATOM      4  C   UNL     1       4.053  -3.719  -0.906  0.00  0.00    +0.126 A 
ATOM      5  C   UNL     1       3.954  -2.585  -1.713  0.00  0.00    +0.042 A 
ATOM      6  C   UNL     1       4.725  -1.458  -1.428  0.00  0.00    -0.038 A 
ATOM     43  F   UNL     1       3.313  -4.801  -1.179  0.00  0.00    -0.205 F 
ATOM     44  C   UNL     1       5.595  -1.464  -0.338  0.00  0.00    +0.042 A 
ENDBRANCH   7   6
ENDBRANCH   8   7
TORSDOF 6
