REMARK  Name = 16038120
REMARK  11 active torsions:
REMARK  status: ('A' for Active; 'I' for Inactive)
REMARK    1  A    between atoms: S_2  and  C_31
REMARK    2  A    between atoms: S_2  and  C_32
REMARK    3  A    between atoms: O_3  and  C_26
REMARK    4  A    between atoms: O_3  and  C_30
REMARK    5  A    between atoms: N_6  and  C_13
REMARK    6  A    between atoms: N_7  and  C_22
REMARK    7  A    between atoms: N_8  and  C_23
REMARK    8  A    between atoms: N_9  and  C_28
REMARK    9  A    between atoms: N_12  and  C_33
REMARK   10  A    between atoms: C_31  and  C_34
REMARK   11  A    between atoms: C_31  and  C_35
REMARK                            x       y       z     vdW  Elec       q    Type
REMARK                         _______ _______ _______ _____ _____    ______ ____
ROOT
ATOM      1 CL   UNL     1       7.435   0.870   0.070  0.00  0.00    -0.078 Cl
ATOM      2  C   UNL     1       5.866   1.540  -0.111  0.00  0.00    +0.099 A 
ATOM      3  C   UNL     1       5.709   2.871  -0.437  0.00  0.00    +0.137 A 
ATOM      4  N   UNL     1       4.509   3.468  -0.596  0.00  0.00    -0.221 NA
ATOM      5  C   UNL     1       3.446   2.663  -0.413  0.00  0.00    +0.221 A 
ATOM      6  N   UNL     1       3.466   1.355  -0.095  0.00  0.00    -0.198 NA
ATOM      7  N   UNL     1       2.177   3.252  -0.571  0.00  0.00    -0.281 N 
ATOM      8  H   UNL     1       2.222   4.261  -0.672  0.00  0.00    +0.155 HD
ATOM     30  C   UNL     1       4.698   0.823   0.049  0.00  0.00    +0.147 A 
ATOM     31  N   UNL     1       4.781  -0.551   0.384  0.00  0.00    -0.297 N 
ATOM     32  H   UNL     1       5.563  -1.012  -0.069  0.00  0.00    +0.154 HD
ENDROOT
BRANCH   7   9
ATOM      9  C   UNL     1       0.866   2.739  -0.462  0.00  0.00    +0.076 A 
ATOM     10  C   UNL     1       0.626   1.399  -0.765  0.00  0.00    +0.029 A 
ATOM     11  C   UNL     1      -0.664   0.880  -0.660  0.00  0.00    +0.025 A 
ATOM     12  C   UNL     1      -1.715   1.701  -0.252  0.00  0.00    +0.033 A 
ATOM     13  C   UNL     1      -1.476   3.042   0.050  0.00  0.00    +0.070 A 
ATOM     27  C   UNL     1      -0.185   3.561  -0.054  0.00  0.00    +0.143 A 
BRANCH  12  14
ATOM     14  N   UNL     1      -3.011   1.180  -0.148  0.00  0.00    -0.330 N 
ATOM     15  C   UNL     1      -4.162   2.059  -0.380  0.00  0.00    +0.106 C 
ATOM     16  C   UNL     1      -5.389   1.242  -0.788  0.00  0.00    +0.038 C 
ATOM     17  C   UNL     1      -5.677   0.129   0.222  0.00  0.00    +0.060 C 
ATOM     18  C   UNL     1      -4.439  -0.758   0.379  0.00  0.00    +0.038 C 
ATOM     26  C   UNL     1      -3.218   0.065   0.787  0.00  0.00    +0.106 C 
BRANCH  17  19
ATOM     19  N   UNL     1      -6.826  -0.660  -0.219  0.00  0.00    -0.297 NA
ATOM     20  C   UNL     1      -7.995   0.200  -0.437  0.00  0.00    +0.100 C 
ATOM     21  C   UNL     1      -9.202  -0.626  -0.896  0.00  0.00    +0.099 C 
ATOM     22  N   UNL     1      -9.515  -1.679   0.078  0.00  0.00    -0.303 NA
ATOM     23  C   UNL     1     -10.665  -2.466  -0.360  0.00  0.00    +0.105 C 
ATOM     24  C   UNL     1      -8.346  -2.539   0.296  0.00  0.00    +0.099 C 
ATOM     25  C   UNL     1      -7.139  -1.714   0.754  0.00  0.00    +0.100 C 
ENDBRANCH  17  19
ENDBRANCH  12  14
BRANCH  27  28
ATOM     28  O   UNL     1       0.029   4.873   0.246  0.00  0.00    -0.493 OA
ATOM     29  C   UNL     1       0.355   5.182   1.599  0.00  0.00    +0.277 C 
ENDBRANCH  27  28
ENDBRANCH   7   9
BRANCH  31  33
ATOM     33  C   UNL     1       3.935  -1.402   1.114  0.00  0.00    +0.058 A 
ATOM     34  C   UNL     1       3.161  -0.863   2.142  0.00  0.00    +0.025 A 
ATOM     35  C   UNL     1       2.313  -1.687   2.882  0.00  0.00    +0.002 A 
ATOM     36  C   UNL     1       2.238  -3.050   2.593  0.00  0.00    +0.002 A 
ATOM     37  C   UNL     1       3.012  -3.588   1.565  0.00  0.00    +0.029 A 
ATOM     38  C   UNL     1       3.861  -2.764   0.826  0.00  0.00    +0.110 A 
BRANCH  38  39
ATOM     39  S   UNL     1       4.816  -3.478  -0.456  0.00  0.00    +0.001 S 
ATOM     43  O   UNL     1       4.598  -4.917  -0.456  0.00  0.00    -0.169 OA
ATOM     44  O   UNL     1       6.167  -2.949  -0.350  0.00  0.00    -0.169 OA
BRANCH  39  40
ATOM     40  C   UNL     1       4.091  -2.840  -1.948  0.00  0.00    +0.130 C 
ATOM     41  C   UNL     1       4.853  -3.347  -3.163  0.00  0.00    +0.032 C 
ATOM     42  C   UNL     1       2.618  -3.215  -2.020  0.00  0.00    +0.032 C 
ENDBRANCH  39  40
ENDBRANCH  38  39
ENDBRANCH  31  33
TORSDOF 7
