REMARK  Name = 56960447
REMARK  8 active torsions:
REMARK  status: ('A' for Active; 'I' for Inactive)
REMARK    1  A    between atoms: O_5  and  C_25
REMARK    2  A    between atoms: O_5  and  C_28
REMARK    3  A    between atoms: N_7  and  C_17
REMARK    4  A    between atoms: N_9  and  C_24
REMARK    5  A    between atoms: C_18  and  C_19
REMARK    6  A    between atoms: C_25  and  C_26
REMARK    7  A    between atoms: C_25  and  C_27
REMARK    8  A    between atoms: C_29  and  C_32
REMARK                            x       y       z     vdW  Elec       q    Type
REMARK                         _______ _______ _______ _____ _____    ______ ____
ROOT
ATOM     13  C   UNL     1      -3.853   1.841  -0.214  0.00  0.00    +0.165 A 
ATOM     14  C   UNL     1      -3.624   3.168  -0.520  0.00  0.00    +0.181 A 
ATOM     15  N   UNL     1      -4.731   3.989  -0.839  0.00  0.00    -0.339 N 
ATOM     16  H   UNL     1      -4.539   4.956  -1.069  0.00  0.00    +0.144 HD
ATOM     17  H   UNL     1      -5.556   3.554  -1.231  0.00  0.00    +0.144 HD
ATOM     18  N   UNL     1      -2.390   3.716  -0.529  0.00  0.00    -0.130 NA
ATOM     19  N   UNL     1      -1.317   2.939  -0.224  0.00  0.00    -0.143 NA
ATOM     20  C   UNL     1      -1.511   1.638   0.079  0.00  0.00    +0.152 A 
ATOM     40  C   UNL     1      -2.760   1.050   0.096  0.00  0.00    +0.084 A 
ENDROOT
BRANCH  20  21
ATOM     21  C   UNL     1      -0.292   0.852   0.400  0.00  0.00    +0.268 C 
ATOM     22  N   UNL     1       0.914   1.564   0.348  0.00  0.00    -0.280 N 
ATOM     23  H   UNL     1       0.853   2.545   0.082  0.00  0.00    +0.155 HD
ATOM     39  O   UNL     1      -0.436  -0.329   0.701  0.00  0.00    -0.268 OA
BRANCH  22  24
ATOM     24  C   UNL     1       2.200   1.098   0.622  0.00  0.00    +0.034 A 
ATOM     25  C   UNL     1       2.394  -0.230   1.001  0.00  0.00    +0.024 A 
ATOM     26  C   UNL     1       3.680  -0.696   1.276  0.00  0.00    +0.015 A 
ATOM     27  C   UNL     1       4.771   0.167   1.171  0.00  0.00    +0.037 A 
ATOM     28  C   UNL     1       4.577   1.495   0.792  0.00  0.00    +0.015 A 
ATOM     38  C   UNL     1       3.291   1.961   0.517  0.00  0.00    +0.024 A 
BRANCH  27  29
ATOM     29  C   UNL     1       6.125  -0.325   1.462  0.00  0.00    +0.247 C 
ATOM     30  N   UNL     1       6.871  -0.863   0.410  0.00  0.00    -0.295 N 
ATOM     31  C   UNL     1       6.396  -1.051  -0.965  0.00  0.00    +0.123 C 
ATOM     32  C   UNL     1       7.429  -0.554  -1.978  0.00  0.00    +0.103 C 
ATOM     33  N   UNL     1       8.745  -1.162  -1.735  0.00  0.00    -0.302 NA
ATOM     34  C   UNL     1       9.715  -0.701  -2.728  0.00  0.00    +0.105 C 
ATOM     35  C   UNL     1       9.211  -0.852  -0.376  0.00  0.00    +0.103 C 
ATOM     36  C   UNL     1       8.218  -1.369   0.664  0.00  0.00    +0.123 C 
ATOM     37  O   UNL     1       6.500  -0.228   2.629  0.00  0.00    -0.270 OA
ENDBRANCH  27  29
ENDBRANCH  22  24
ENDBRANCH  20  21
BRANCH  13  12
ATOM     12  O   UNL     1      -5.100   1.305  -0.210  0.00  0.00    -0.481 OA
BRANCH  12  10
ATOM     10  C   UNL     1      -5.346   0.220  -1.105  0.00  0.00    +0.204 C 
ATOM     11  C   UNL     1      -6.431   0.618  -2.099  0.00  0.00    +0.057 C 
BRANCH  10   9
ATOM      1 CL   UNL     1      -4.475  -2.482  -2.230  0.00  0.00    -0.080 Cl
ATOM      2  C   UNL     1      -5.363  -2.274  -0.763  0.00  0.00    +0.084 A 
ATOM      3  C   UNL     1      -5.716  -3.406  -0.027  0.00  0.00    +0.142 A 
ATOM      4  C   UNL     1      -6.433  -3.269   1.162  0.00  0.00    +0.041 A 
ATOM      5  C   UNL     1      -6.797  -2.002   1.615  0.00  0.00    +0.023 A 
ATOM      6  C   UNL     1      -6.444  -0.870   0.879  0.00  0.00    +0.049 A 
ATOM      7 CL   UNL     1      -6.916   0.680   1.477  0.00  0.00    -0.083 Cl
ATOM      8  F   UNL     1      -5.374  -4.632  -0.448  0.00  0.00    -0.204 F 
ATOM      9  C   UNL     1      -5.728  -1.006  -0.310  0.00  0.00    +0.032 A 
ENDBRANCH  10   9
ENDBRANCH  12  10
ENDBRANCH  13  12
TORSDOF 6
