REMARK  Name = 33575
REMARK  5 active torsions:
REMARK  status: ('A' for Active; 'I' for Inactive)
REMARK    1  A    between atoms: C_4  and  C_6
REMARK    2  A    between atoms: C_18  and  C_26
REMARK    3  A    between atoms: C_21  and  N_23
REMARK    4  A    between atoms: N_23  and  C_24
REMARK    5  A    between atoms: N_23  and  C_25
REMARK                            x       y       z     vdW  Elec       q    Type
REMARK                         _______ _______ _______ _____ _____    ______ ____
ROOT
ATOM      1  O   UNL     1       3.807  -5.093   0.000  0.00  0.00    -0.245 OA
ATOM      2  C   UNL     1       5.298  -4.936   0.000  0.00  0.00    +0.345 C 
ATOM      3  C   UNL     1       6.048  -3.637   0.000  0.00  0.00    +0.063 C 
ATOM      4  C   UNL     1       5.438  -2.267   0.000  0.00  0.00    +0.023 C 
ATOM     14  C   UNL     1       7.516  -3.949   0.000  0.00  0.00    +0.062 C 
ATOM     15  C   UNL     1       7.672  -5.441   0.000  0.00  0.00    +0.140 C 
ATOM     26  O   UNL     1       6.302  -6.051   0.000  0.00  0.00    -0.422 OA
ENDROOT
BRANCH  15  16
ATOM     16  C   UNL     1       8.971  -6.191   0.000  0.00  0.00    +0.018 A 
ATOM     17  C   UNL     1       8.971  -7.691   0.000  0.00  0.00    +0.012 A 
ATOM     18  C   UNL     1      10.270  -8.441   0.000  0.00  0.00    +0.004 A 
ATOM     19  C   UNL     1      11.569  -7.691   0.000  0.00  0.00    -0.044 A 
ATOM     20  C   UNL     1      12.868  -8.441   0.000  0.00  0.00    +0.035 C 
ATOM     21  C   UNL     1      14.168  -7.691   0.000  0.00  0.00    +0.005 C 
ATOM     22  C   UNL     1      14.167  -6.191   0.000  0.00  0.00    +0.005 C 
ATOM     23  C   UNL     1      12.868  -5.441   0.000  0.00  0.00    +0.035 C 
ATOM     24  C   UNL     1      11.569  -6.191   0.000  0.00  0.00    -0.044 A 
ATOM     25  C   UNL     1      10.270  -5.441   0.000  0.00  0.00    +0.015 A 
ENDBRANCH  15  16
BRANCH   4   5
ATOM      5  C   UNL     1       3.946  -2.110   0.000  0.00  0.00    -0.024 A 
ATOM      6  C   UNL     1       3.065  -3.324   0.000  0.00  0.00    +0.010 A 
ATOM      7  C   UNL     1       1.573  -3.167   0.000  0.00  0.00    +0.023 A 
ATOM      8  C   UNL     1       0.963  -1.797   0.000  0.00  0.00    +0.029 A 
ATOM     12  C   UNL     1       1.845  -0.583   0.000  0.00  0.00    +0.023 A 
ATOM     13  C   UNL     1       3.336  -0.740   0.000  0.00  0.00    +0.010 A 
BRANCH   8   9
ATOM      9  N   UNL     1      -0.529  -1.640   0.000  0.00  0.00    -0.336 N 
ATOM     10  C   UNL     1      -1.411  -2.853   0.000  0.00  0.00    +0.129 C 
ATOM     11  C   UNL     1      -1.139  -0.269   0.000  0.00  0.00    +0.129 C 
ENDBRANCH   8   9
ENDBRANCH   4   5
TORSDOF 3