REMARK  Name = 32838
REMARK  0 active torsions:
REMARK  status: ('A' for Active; 'I' for Inactive)
REMARK                            x       y       z     vdW  Elec       q    Type
REMARK                         _______ _______ _______ _____ _____    ______ ____
ROOT
ATOM      1  H   UNL     1      -2.414  -5.786   0.000  0.00  0.00    +0.152 HD
ATOM      2  N   UNL     1      -0.988  -5.322   0.000  0.00  0.00    -0.281 N 
ATOM      3  C   UNL     1       0.226  -6.204   0.000  0.00  0.00    +0.138 C 
ATOM      4  C   UNL     1      -0.988  -7.085   0.000  0.00  0.00    -0.012 A 
ATOM      5  C   UNL     1      -2.455  -6.774   0.000  0.00  0.00    +0.006 A 
ATOM      6  C   UNL     1      -3.458  -7.888   0.000  0.00  0.00    +0.000 A 
ATOM      7  C   UNL     1      -2.995  -9.315   0.000  0.00  0.00    +0.000 A 
ATOM      8  C   UNL     1      -1.528  -9.627   0.000  0.00  0.00    +0.004 A 
ATOM      9  C   UNL     1      -0.524  -8.512   0.000  0.00  0.00    -0.042 A 
ATOM     10  C   UNL     1       0.976  -8.512   0.000  0.00  0.00    +0.038 C 
ATOM     11  C   UNL     1       1.440  -7.085   0.000  0.00  0.00    +0.045 C 
ATOM     12  C   UNL     1       1.440  -5.322   0.000  0.00  0.00    +0.248 C 
ATOM     13  O   UNL     1       2.866  -5.786   0.000  0.00  0.00    -0.273 OA
ATOM     14  N   UNL     1       0.976  -3.896   0.000  0.00  0.00    -0.238 N 
ATOM     15  H   UNL     1       1.858  -2.682   0.000  0.00  0.00    +0.159 HD
ATOM     16  C   UNL     1      -0.524  -3.896   0.000  0.00  0.00    +0.307 C 
ATOM     17  O   UNL     1      -1.406  -2.682   0.000  0.00  0.00    -0.252 OA
ENDROOT
TORSDOF 0