REMARK  Name = 3323
REMARK  10 active torsions:
REMARK  status: ('A' for Active; 'I' for Inactive)
REMARK    1  A    between atoms: C_1  and  N_23
REMARK    2  A    between atoms: C_6  and  C_22
REMARK    3  A    between atoms: C_8  and  C_22
REMARK    4  A    between atoms: C_10  and  N_26
REMARK    5  A    between atoms: C_14  and  C_22
REMARK    6  A    between atoms: C_17  and  N_19
REMARK    7  A    between atoms: N_19  and  C_20
REMARK    8  A    between atoms: N_19  and  C_21
REMARK    9  A    between atoms: N_26  and  C_27
REMARK   10  A    between atoms: N_26  and  C_28
REMARK                            x       y       z     vdW  Elec       q    Type
REMARK                         _______ _______ _______ _____ _____    ______ ____
ROOT
ATOM      8  C   UNL     1       0.460  -9.703   0.000  0.00  0.00    +0.079 C 
ENDROOT
BRANCH   8   7
ATOM      1  C   UNL     1       0.460  -5.203   0.000  0.00  0.00    +0.273 A 
ATOM      5  C   UNL     1      -0.839  -5.953   0.000  0.00  0.00    +0.084 A 
ATOM      6  C   UNL     1      -0.839  -7.453   0.000  0.00  0.00    +0.011 A 
ATOM      7  C   UNL     1       0.460  -8.203   0.000  0.00  0.00    -0.035 A 
ATOM     27  C   UNL     1       1.759  -7.453   0.000  0.00  0.00    +0.011 A 
ATOM     28  C   UNL     1       1.759  -5.953   0.000  0.00  0.00    +0.084 A 
BRANCH   1   2
ATOM      2  N   UNL     1       0.460  -3.703   0.000  0.00  0.00    +0.080 N 
ATOM      3  O   UNL     1       1.759  -2.953   0.000  0.00  0.00    +0.041 OA
ATOM      4  O   UNL     1      -0.839  -2.953   0.000  0.00  0.00    -0.576 OA
ENDBRANCH   1   2
ENDBRANCH   8   7
BRANCH   8   9
ATOM      9  C   UNL     1      -0.839 -10.453   0.000  0.00  0.00    -0.036 A 
ATOM     10  C   UNL     1      -0.839 -11.953   0.000  0.00  0.00    +0.006 A 
ATOM     11  C   UNL     1      -2.138 -12.703   0.000  0.00  0.00    +0.023 A 
ATOM     12  C   UNL     1      -3.437 -11.953   0.000  0.00  0.00    +0.029 A 
ATOM     16  C   UNL     1      -3.437 -10.453   0.000  0.00  0.00    +0.023 A 
ATOM     17  C   UNL     1      -2.138  -9.703   0.000  0.00  0.00    +0.006 A 
BRANCH  12  13
ATOM     13  N   UNL     1      -4.736 -12.703   0.000  0.00  0.00    -0.336 N 
ATOM     14  C   UNL     1      -4.736 -14.203   0.000  0.00  0.00    +0.129 C 
ATOM     15  C   UNL     1      -6.035 -11.953   0.000  0.00  0.00    +0.129 C 
ENDBRANCH  12  13
ENDBRANCH   8   9
BRANCH   8  18
ATOM     18  C   UNL     1       1.759 -10.453   0.000  0.00  0.00    -0.036 A 
ATOM     19  C   UNL     1       1.759 -11.953   0.000  0.00  0.00    +0.006 A 
ATOM     20  C   UNL     1       3.058 -12.703   0.000  0.00  0.00    +0.023 A 
ATOM     21  C   UNL     1       4.357 -11.953   0.000  0.00  0.00    +0.029 A 
ATOM     25  C   UNL     1       4.357 -10.453   0.000  0.00  0.00    +0.023 A 
ATOM     26  C   UNL     1       3.058  -9.703   0.000  0.00  0.00    +0.006 A 
BRANCH  21  22
ATOM     22  N   UNL     1       5.656 -12.703   0.000  0.00  0.00    -0.336 N 
ATOM     23  C   UNL     1       5.656 -14.203   0.000  0.00  0.00    +0.129 C 
ATOM     24  C   UNL     1       6.955 -11.953   0.000  0.00  0.00    +0.129 C 
ENDBRANCH  21  22
ENDBRANCH   8  18
TORSDOF 6