REMARK  Name = 328087
REMARK  5 active torsions:
REMARK  status: ('A' for Active; 'I' for Inactive)
REMARK    1  A    between atoms: N_11  and  C_28
REMARK    2  A    between atoms: C_12  and  C_13
REMARK    3  A    between atoms: C_14  and  O_27
REMARK    4  A    between atoms: C_19  and  C_29
REMARK    5  A    between atoms: C_28  and  C_29
REMARK                            x       y       z     vdW  Elec       q    Type
REMARK                         _______ _______ _______ _____ _____    ______ ____
ROOT
ATOM      1  C   UNL     1     -10.017  -6.650   0.000  0.00  0.00    +0.001 A 
ATOM      2  C   UNL     1     -10.017  -8.150   0.000  0.00  0.00    +0.002 A 
ATOM      3  C   UNL     1      -8.718  -8.900   0.000  0.00  0.00    +0.024 A 
ATOM      4  C   UNL     1      -7.419  -8.149   0.000  0.00  0.00    +0.041 A 
ATOM      5  N   UNL     1      -6.120  -8.899   0.000  0.00  0.00    -0.321 N 
ATOM      6  H   UNL     1      -6.120 -10.400   0.000  0.00  0.00    +0.148 HD
ATOM      7  C   UNL     1      -4.821  -8.149   0.000  0.00  0.00    +0.196 C 
ATOM     18  N   UNL     1      -4.821  -6.649   0.000  0.00  0.00    -0.274 N 
ATOM     27  C   UNL     1      -6.120  -5.899   0.000  0.00  0.00    +0.250 C 
ATOM     28  O   UNL     1      -6.120  -4.399   0.000  0.00  0.00    -0.270 OA
ATOM     29  C   UNL     1      -7.419  -6.649   0.000  0.00  0.00    +0.058 A 
ATOM     30  C   UNL     1      -8.718  -5.899   0.000  0.00  0.00    +0.015 A 
ENDROOT
BRANCH   7   8
ATOM      8  C   UNL     1      -3.522  -8.899   0.000  0.00  0.00    +0.035 A 
ATOM      9  C   UNL     1      -3.522 -10.400   0.000  0.00  0.00    +0.142 A 
ATOM     12  C   UNL     1      -2.223 -11.150   0.000  0.00  0.00    +0.084 A 
ATOM     13 CL   UNL     1      -2.223 -12.650   0.000  0.00  0.00    -0.080 Cl
ATOM     14  C   UNL     1      -0.924 -10.400   0.000  0.00  0.00    +0.043 A 
ATOM     15  C   UNL     1      -0.924  -8.899   0.000  0.00  0.00    +0.043 A 
ATOM     16 CL   UNL     1       0.375  -8.149   0.000  0.00  0.00    -0.083 Cl
ATOM     17  C   UNL     1      -2.223  -8.149   0.000  0.00  0.00    +0.030 A 
BRANCH   9  10
ATOM     10  O   UNL     1      -4.821 -11.150   0.000  0.00  0.00    -0.505 OA
ATOM     11  H   UNL     1      -5.633 -10.681   0.000  0.00  0.00    +0.292 HD
ENDBRANCH   9  10
ENDBRANCH   7   8
BRANCH  18  19
ATOM     19  C   UNL     1      -3.522  -5.899   0.000  0.00  0.00    +0.116 C 
BRANCH  19  20
ATOM     20  C   UNL     1      -3.522  -4.399   0.000  0.00  0.00    +0.074 C 
BRANCH  20  21
ATOM     21  C   UNL     1      -2.223  -3.650   0.000  0.00  0.00    +0.043 A 
ATOM     22  N   UNL     1      -0.924  -4.399   0.000  0.00  0.00    -0.260 NA
ATOM     23  C   UNL     1       0.375  -3.650   0.000  0.00  0.00    +0.111 A 
ATOM     24  C   UNL     1       0.375  -2.150   0.000  0.00  0.00    +0.020 A 
ATOM     25  C   UNL     1      -0.924  -1.400   0.000  0.00  0.00    +0.003 A 
ATOM     26  C   UNL     1      -2.223  -2.150   0.000  0.00  0.00    +0.023 A 
ENDBRANCH  20  21
ENDBRANCH  19  20
ENDBRANCH  18  19
TORSDOF 5