REMARK  Name = 338106
REMARK  3 active torsions:
REMARK  status: ('A' for Active; 'I' for Inactive)
REMARK    1  A    between atoms: C_6  and  N_7
REMARK    2  A    between atoms: N_8  and  C_9
REMARK    3  A    between atoms: C_11  and  O_19
REMARK                            x       y       z     vdW  Elec       q    Type
REMARK                         _______ _______ _______ _____ _____    ______ ____
ROOT
ATOM      7  C   UNL     1       3.580  -3.200   0.000  0.00  0.00    +0.128 A 
ATOM      8  C   UNL     1       3.580  -4.700   0.000  0.00  0.00    +0.034 A 
ATOM      9  C   UNL     1       4.879  -5.450   0.000  0.00  0.00    +0.011 A 
ATOM     10  C   UNL     1       6.178  -4.700   0.000  0.00  0.00    -0.014 A 
ATOM     11  C   UNL     1       7.477  -5.450   0.000  0.00  0.00    +0.008 A 
ATOM     12  C   UNL     1       8.776  -4.700   0.000  0.00  0.00    +0.001 A 
ATOM     13  C   UNL     1       8.776  -3.200   0.000  0.00  0.00    +0.001 A 
ATOM     14  C   UNL     1       7.477  -2.450   0.000  0.00  0.00    +0.012 A 
ATOM     15  C   UNL     1       6.178  -3.200   0.000  0.00  0.00    +0.026 A 
ATOM     16  C   UNL     1       4.879  -2.450   0.000  0.00  0.00    +0.152 A 
ENDROOT
BRANCH   7   6
ATOM      5  N   UNL     1       0.982  -3.200   0.000  0.00  0.00    -0.107 NA
ATOM      6  N   UNL     1       2.281  -2.450   0.000  0.00  0.00    -0.143 NA
BRANCH   5   4
ATOM      1  N   UNL     1      -1.941  -0.647   0.000  0.00  0.00    -0.045 NA
ATOM      2  N   UNL     1      -2.691  -1.946   0.000  0.00  0.00    -0.021 NA
ATOM      3  N   UNL     1      -1.688  -3.061   0.000  0.00  0.00    -0.086 NA
ATOM      4  C   UNL     1      -0.317  -2.450   0.000  0.00  0.00    +0.285 A 
ATOM     19  N   UNL     1      -0.474  -0.959   0.000  0.00  0.00    -0.222 N 
ATOM     20  H   UNL     1       0.641   0.045   0.000  0.00  0.00    +0.194 HD
ENDBRANCH   5   4
ENDBRANCH   7   6
BRANCH  16  17
ATOM     17  O   UNL     1       4.879  -0.951   0.000  0.00  0.00    -0.504 OA
ATOM     18  H   UNL     1       5.690  -0.482   0.000  0.00  0.00    +0.292 HD
ENDBRANCH  16  17
TORSDOF 3