REMARK  Name = 332473
REMARK  3 active torsions:
REMARK  status: ('A' for Active; 'I' for Inactive)
REMARK    1  A    between atoms: C_1  and  C_13
REMARK    2  A    between atoms: C_3  and  N_15
REMARK    3  A    between atoms: N_5  and  C_6
REMARK                            x       y       z     vdW  Elec       q    Type
REMARK                         _______ _______ _______ _____ _____    ______ ____
ROOT
ATOM      1  C   UNL     1       3.177   2.799   0.000  0.00  0.00    +0.203 A 
ATOM      4  N   UNL     1       3.177   1.299   0.000  0.00  0.00    -0.117 NA
ATOM      5  N   UNL     1       4.604   0.836   0.000  0.00  0.00    -0.058 NA
ATOM      6  N   UNL     1       5.485   2.049   0.000  0.00  0.00    -0.198 N 
ATOM     14  C   UNL     1       4.604   3.263   0.000  0.00  0.00    +0.158 A 
ENDROOT
BRANCH   6   7
ATOM      7  C   UNL     1       6.985   2.049   0.000  0.00  0.00    +0.069 A 
ATOM      8  C   UNL     1       7.735   0.750   0.000  0.00  0.00    +0.029 A 
ATOM      9  C   UNL     1       9.235   0.750   0.000  0.00  0.00    +0.022 A 
ATOM     10  C   UNL     1       9.985   2.049   0.000  0.00  0.00    +0.041 A 
ATOM     11 CL   UNL     1      11.485   2.049   0.000  0.00  0.00    -0.084 Cl
ATOM     12  C   UNL     1       9.235   3.348   0.000  0.00  0.00    +0.022 A 
ATOM     13  C   UNL     1       7.735   3.348   0.000  0.00  0.00    +0.029 A 
ENDBRANCH   6   7
BRANCH  14  15
ATOM     15  N   UNL     1       5.067   4.689   0.000  0.00  0.00    -0.341 N 
ATOM     16  H   UNL     1       4.408   5.421   0.000  0.00  0.00    +0.144 HD
ATOM     17  H   UNL     1       6.030   4.894   0.000  0.00  0.00    +0.144 HD
ENDBRANCH  14  15
BRANCH   1   2
ATOM      2  C   UNL     1       1.964   3.681   0.000  0.00  0.00    +0.125 C 
ATOM      3  N   UNL     1       0.750   4.562   0.000  0.00  0.00    -0.189 NA
ENDBRANCH   1   2
TORSDOF 3