REMARK  Name = 33738
REMARK  5 active torsions:
REMARK  status: ('A' for Active; 'I' for Inactive)
REMARK    1  A    between atoms: C_4  and  O_19
REMARK    2  A    between atoms: C_7  and  C_20
REMARK    3  A    between atoms: C_11  and  N_15
REMARK    4  A    between atoms: C_16  and  C_18
REMARK    5  A    between atoms: C_18  and  O_19
REMARK                            x       y       z     vdW  Elec       q    Type
REMARK                         _______ _______ _______ _____ _____    ______ ____
ROOT
ATOM     10  C   UNL     1       2.049  -3.000   0.000  0.00  0.00    +0.324 C 
ENDROOT
BRANCH  10   9
ATOM      7  N   UNL     1       4.647  -3.000   0.000  0.00  0.00    -0.283 N 
ATOM      8  H   UNL     1       4.733  -3.981   0.000  0.00  0.00    +0.155 HD
ATOM      9  C   UNL     1       3.348  -2.250   0.000  0.00  0.00    +0.255 C 
ATOM     23  O   UNL     1       3.348  -0.750   0.000  0.00  0.00    -0.272 OA
BRANCH   7   6
ATOM      1 CL   UNL     1       9.764  -2.098   0.000  0.00  0.00    -0.082 Cl
ATOM      2  C   UNL     1       8.355  -1.585   0.000  0.00  0.00    +0.061 A 
ATOM      3  C   UNL     1       8.094  -0.107   0.000  0.00  0.00    +0.059 A 
ATOM      4  C   UNL     1       6.685   0.406   0.000  0.00  0.00    +0.023 A 
ATOM      5  C   UNL     1       5.536  -0.559   0.000  0.00  0.00    +0.025 A 
ATOM      6  C   UNL     1       5.796  -2.036   0.000  0.00  0.00    +0.035 A 
ATOM     24 CL   UNL     1       9.243   0.857   0.000  0.00  0.00    -0.082 Cl
ATOM     25  C   UNL     1       7.206  -2.549   0.000  0.00  0.00    +0.044 A 
ENDBRANCH   7   6
ENDBRANCH  10   9
BRANCH  10  11
ATOM     11  O   UNL     1       2.049  -4.500   0.000  0.00  0.00    -0.482 OA
BRANCH  11  12
ATOM     12  C   UNL     1       3.348  -5.250   0.000  0.00  0.00    +0.133 A 
ATOM     13  C   UNL     1       3.348  -6.750   0.000  0.00  0.00    +0.078 A 
ATOM     19  C   UNL     1       4.647  -7.500   0.000  0.00  0.00    +0.017 A 
ATOM     20  C   UNL     1       5.946  -6.750   0.000  0.00  0.00    +0.001 A 
ATOM     21  C   UNL     1       5.946  -5.250   0.000  0.00  0.00    +0.004 A 
ATOM     22  C   UNL     1       4.647  -4.500   0.000  0.00  0.00    +0.046 A 
BRANCH  13  14
ATOM     14  C   UNL     1       2.049  -7.500   0.000  0.00  0.00    +0.245 C 
ATOM     15  N   UNL     1       0.750  -6.750   0.000  0.00  0.00    -0.325 N 
ATOM     16  H   UNL     1      -0.103  -7.242   0.000  0.00  0.00    +0.145 HD
ATOM     17  H   UNL     1       0.750  -5.766   0.000  0.00  0.00    +0.145 HD
ATOM     18  O   UNL     1       2.049  -9.000   0.000  0.00  0.00    -0.270 OA
ENDBRANCH  13  14
ENDBRANCH  11  12
ENDBRANCH  10  11
TORSDOF 5