REMARK  Name = 330497
REMARK  4 active torsions:
REMARK  status: ('A' for Active; 'I' for Inactive)
REMARK    1  A    between atoms: N_5  and  C_14
REMARK    2  A    between atoms: C_7  and  C_14
REMARK    3  A    between atoms: C_8  and  C_15
REMARK    4  A    between atoms: N_9  and  C_15
REMARK                            x       y       z     vdW  Elec       q    Type
REMARK                         _______ _______ _______ _____ _____    ______ ____
ROOT
ATOM      7  C   UNL     1      -0.311  -1.641   0.000  0.00  0.00    -0.082 C 
ATOM      8  C   UNL     1       1.188  -1.574   0.000  0.00  0.00    -0.085 C 
ENDROOT
BRANCH   7   6
ATOM      6  C   UNL     1      -1.809  -1.708   0.000  0.00  0.00    +0.197 C 
BRANCH   6   5
ATOM      1  C   UNL     1      -3.227   1.906   0.000  0.00  0.00    +0.028 C 
ATOM      2  C   UNL     1      -4.491   1.098   0.000  0.00  0.00    +0.097 C 
ATOM      3  C   UNL     1      -4.114  -0.354   0.000  0.00  0.00    +0.216 C 
ATOM      4  O   UNL     1      -5.067  -1.512   0.000  0.00  0.00    -0.276 OA
ATOM      5  N   UNL     1      -2.616  -0.444   0.000  0.00  0.00    -0.290 N 
ATOM     15  C   UNL     1      -2.068   0.953   0.000  0.00  0.00    +0.109 C 
ENDBRANCH   6   5
ENDBRANCH   7   6
BRANCH   8   9
ATOM      9  C   UNL     1       2.686  -1.507   0.000  0.00  0.00    +0.173 C 
BRANCH   9  10
ATOM     10  N   UNL     1       3.378  -0.176   0.000  0.00  0.00    -0.292 NA
ATOM     11  C   UNL     1       4.861   0.047   0.000  0.00  0.00    +0.085 C 
ATOM     12  C   UNL     1       5.107   1.527   0.000  0.00  0.00    +0.017 C 
ATOM     13  C   UNL     1       3.776   2.218   0.000  0.00  0.00    +0.017 C 
ATOM     14  C   UNL     1       2.707   1.166   0.000  0.00  0.00    +0.085 C 
ENDBRANCH   9  10
ENDBRANCH   8   9
TORSDOF 4