REMARK  Name = 331198
REMARK  5 active torsions:
REMARK  status: ('A' for Active; 'I' for Inactive)
REMARK    1  A    between atoms: N_1  and  C_4
REMARK    2  A    between atoms: C_2  and  S_3
REMARK    3  A    between atoms: S_3  and  C_7
REMARK    4  A    between atoms: N_6  and  C_8
REMARK    5  A    between atoms: C_8  and  C_9
REMARK                            x       y       z     vdW  Elec       q    Type
REMARK                         _______ _______ _______ _____ _____    ______ ____
ROOT
ATOM      1  N   UNL     1       3.275  -1.025   0.000  0.00  0.00    -0.151 NA
ATOM      4  C   UNL     1       4.774  -1.025   0.000  0.00  0.00    +0.166 C 
ATOM      5  N   UNL     1       5.524  -2.324   0.000  0.00  0.00    -0.320 N 
ATOM      6  H   UNL     1       5.032  -3.176   0.000  0.00  0.00    +0.148 HD
ENDROOT
BRANCH   1   2
ATOM      2  C   UNL     1       2.525   0.275   0.000  0.00  0.00    +0.207 C 
ATOM      3  N   UNL     1       1.775   1.574   0.000  0.00  0.00    -0.169 NA
ENDBRANCH   1   2
BRANCH   4  10
ATOM     10  S   UNL     1       5.524   0.275   0.000  0.00  0.00    -0.093 S 
ATOM     11  C   UNL     1       4.774   1.574   0.000  0.00  0.00    +0.093 C 
ENDBRANCH   4  10
BRANCH   5   7
ATOM      7  C   UNL     1       7.024  -2.324   0.000  0.00  0.00    +0.130 C 
BRANCH   7   8
ATOM      8  C   UNL     1       7.774  -1.025   0.000  0.00  0.00    -0.016 C 
ATOM      9  C   UNL     1       7.024   0.275   0.000  0.00  0.00    +0.005 C 
ENDBRANCH   7   8
ENDBRANCH   5   7
TORSDOF 4