REMARK  Name = 33173
REMARK  3 active torsions:
REMARK  status: ('A' for Active; 'I' for Inactive)
REMARK    1  A    between atoms: C_3  and  C_16
REMARK    2  A    between atoms: C_6  and  O_18
REMARK    3  A    between atoms: O_18  and  C_19
REMARK                            x       y       z     vdW  Elec       q    Type
REMARK                         _______ _______ _______ _____ _____    ______ ____
ROOT
ATOM      1 CL   UNL     1       0.750   0.750   0.000  0.00  0.00    -0.083 Cl
ATOM      2  C   UNL     1       2.049   1.500   0.000  0.00  0.00    +0.043 A 
ATOM      3  C   UNL     1       3.348   0.750   0.000  0.00  0.00    +0.048 A 
ATOM      4  C   UNL     1       4.647   1.500   0.000  0.00  0.00    +0.074 A 
ATOM      5  C   UNL     1       4.647   3.000   0.000  0.00  0.00    +0.018 A 
ATOM      6  C   UNL     1       3.348   3.750   0.000  0.00  0.00    +0.013 A 
ATOM      7  C   UNL     1       5.946   3.750   0.000  0.00  0.00    +0.070 A 
ATOM     10  C   UNL     1       7.245   3.000   0.000  0.00  0.00    +0.022 A 
ATOM     11  C   UNL     1       8.544   3.750   0.000  0.00  0.00    +0.057 A 
ATOM     12  C   UNL     1       9.843   3.000   0.000  0.00  0.00    +0.121 A 
ATOM     15  C   UNL     1       9.843   1.500   0.000  0.00  0.00    +0.048 A 
ATOM     16  C   UNL     1       8.544   0.750   0.000  0.00  0.00    +0.032 A 
ATOM     17  C   UNL     1       7.245   1.500   0.000  0.00  0.00    +0.073 A 
ATOM     18  N   UNL     1       5.946   0.750   0.000  0.00  0.00    -0.247 NA
ATOM     19  C   UNL     1       2.049   3.000   0.000  0.00  0.00    +0.021 A 
ENDROOT
BRANCH   7   8
ATOM      8  C   UNL     1       5.946   5.250   0.000  0.00  0.00    +0.100 C 
ATOM      9  N   UNL     1       5.946   6.750   0.000  0.00  0.00    -0.191 NA
ENDBRANCH   7   8
BRANCH  12  13
ATOM     13  O   UNL     1      11.142   3.750   0.000  0.00  0.00    -0.495 OA
ATOM     14  C   UNL     1      12.441   3.000   0.000  0.00  0.00    +0.277 C 
ENDBRANCH  12  13
TORSDOF 2