REMARK  Name = 329284
REMARK  3 active torsions:
REMARK  status: ('A' for Active; 'I' for Inactive)
REMARK    1  A    between atoms: C_10  and  C_11
REMARK    2  A    between atoms: C_11  and  O_13
REMARK    3  A    between atoms: O_13  and  C_14
REMARK                            x       y       z     vdW  Elec       q    Type
REMARK                         _______ _______ _______ _____ _____    ______ ____
ROOT
ATOM      1  C   UNL     1       1.330   0.803   0.000  0.00  0.00    +0.166 C 
ATOM      2  N   UNL     1       2.211  -0.411   0.000  0.00  0.00    -0.259 NA
ATOM      3  C   UNL     1       3.638   0.053   0.000  0.00  0.00    +0.172 A 
ATOM      4  S   UNL     1       4.937  -0.697   0.000  0.00  0.00    -0.045 S 
ATOM      5  C   UNL     1       6.236   0.053   0.000  0.00  0.00    +0.105 A 
ATOM     10  C   UNL     1       6.236   1.553   0.000  0.00  0.00    +0.092 A 
ATOM     11  C   UNL     1       4.937   2.303   0.000  0.00  0.00    +0.255 A 
ATOM     12  O   UNL     1       4.937   3.803   0.000  0.00  0.00    -0.268 OA
ATOM     13  N   UNL     1       3.638   1.553   0.000  0.00  0.00    -0.286 N 
ATOM     14  C   UNL     1       2.211   2.016   0.000  0.00  0.00    +0.150 C 
ENDROOT
BRANCH   5   6
ATOM      6  C   UNL     1       7.535  -0.697   0.000  0.00  0.00    +0.346 C 
ATOM      9  O   UNL     1       8.834   0.053   0.000  0.00  0.00    -0.244 OA
BRANCH   6   7
ATOM      7  O   UNL     1       7.535  -2.197   0.000  0.00  0.00    -0.464 OA
ATOM      8  C   UNL     1       8.834  -2.947   0.000  0.00  0.00    +0.280 C 
ENDBRANCH   6   7
ENDBRANCH   5   6
TORSDOF 2