REMARK  Name = 33005
REMARK  3 active torsions:
REMARK  status: ('A' for Active; 'I' for Inactive)
REMARK    1  A    between atoms: C_4  and  C_8
REMARK    2  A    between atoms: C_6  and  O_17
REMARK    3  A    between atoms: C_7  and  O_16
REMARK                            x       y       z     vdW  Elec       q    Type
REMARK                         _______ _______ _______ _____ _____    ______ ____
ROOT
ATOM     10  C   UNL     1      -5.250  -2.250   0.000  0.00  0.00    +0.049 A 
ATOM     11  C   UNL     1      -4.500  -3.549   0.000  0.00  0.00    +0.130 A 
ATOM     14  C   UNL     1      -3.000  -3.549   0.000  0.00  0.00    +0.091 A 
ATOM     15  C   UNL     1      -2.250  -2.250   0.000  0.00  0.00    +0.120 A 
ATOM     18  C   UNL     1      -3.000  -0.951   0.000  0.00  0.00    +0.046 A 
ATOM     19  C   UNL     1      -4.500  -0.951   0.000  0.00  0.00    +0.018 A 
ENDROOT
BRANCH  10   9
ATOM      1  S   UNL     1      -7.632  -1.037   0.000  0.00  0.00    -0.067 S 
ATOM      2  C   UNL     1      -9.058  -1.500   0.000  0.00  0.00    +0.040 A 
ATOM      3  C   UNL     1      -9.058  -3.000   0.000  0.00  0.00    +0.079 A 
ATOM      4  C   UNL     1     -10.357  -3.750   0.000  0.00  0.00    +0.029 A 
ATOM      5  C   UNL     1     -11.656  -3.000   0.000  0.00  0.00    +0.002 A 
ATOM      6  C   UNL     1     -11.656  -1.500   0.000  0.00  0.00    +0.001 A 
ATOM      7  N   UNL     1      -7.632  -3.463   0.000  0.00  0.00    -0.239 NA
ATOM      8  C   UNL     1     -10.357  -0.750   0.000  0.00  0.00    +0.017 A 
ATOM      9  C   UNL     1      -6.750  -2.250   0.000  0.00  0.00    +0.113 A 
ENDBRANCH  10   9
BRANCH  11  12
ATOM     12  O   UNL     1      -5.250  -4.848   0.000  0.00  0.00    -0.506 OA
ATOM     13  H   UNL     1      -6.187  -4.848   0.000  0.00  0.00    +0.292 HD
ENDBRANCH  11  12
BRANCH  15  16
ATOM     16  O   UNL     1      -0.750  -2.250   0.000  0.00  0.00    -0.507 OA
ATOM     17  H   UNL     1      -0.281  -3.061   0.000  0.00  0.00    +0.292 HD
ENDBRANCH  15  16
TORSDOF 3