REMARK  Name = 33478
REMARK  10 active torsions:
REMARK  status: ('A' for Active; 'I' for Inactive)
REMARK    1  A    between atoms: C_3  and  N_21
REMARK    2  A    between atoms: C_4  and  O_22
REMARK    3  A    between atoms: C_8  and  N_18
REMARK    4  A    between atoms: C_9  and  C_13
REMARK    5  A    between atoms: C_10  and  C_17
REMARK    6  A    between atoms: C_11  and  O_16
REMARK    7  A    between atoms: C_13  and  C_14
REMARK    8  A    between atoms: C_13  and  C_15
REMARK    9  A    between atoms: O_22  and  C_23
REMARK   10  A    between atoms: C_23  and  C_24
REMARK                            x       y       z     vdW  Elec       q    Type
REMARK                         _______ _______ _______ _____ _____    ______ ____
ROOT
ATOM      3  N   UNL     1       6.870  -0.101   0.000  0.00  0.00    -0.269 N 
ATOM      4  H   UNL     1       6.870   0.884   0.000  0.00  0.00    +0.156 HD
ATOM      5  C   UNL     1       5.571  -0.851   0.000  0.00  0.00    +0.308 C 
ATOM      6  O   UNL     1       5.571  -2.350   0.000  0.00  0.00    -0.252 OA
ATOM      7  N   UNL     1       4.272  -0.101   0.000  0.00  0.00    -0.269 N 
ATOM      8  H   UNL     1       3.420  -0.593   0.000  0.00  0.00    +0.156 HD
ENDROOT
BRANCH   7   9
ATOM      9  C   UNL     1       4.272   1.400   0.000  0.00  0.00    +0.038 A 
ATOM     10  C   UNL     1       2.973   2.150   0.000  0.00  0.00    -0.026 A 
ATOM     11  C   UNL     1       1.674   1.400   0.000  0.00  0.00    +0.046 C 
ATOM     12  C   UNL     1       2.973   3.650   0.000  0.00  0.00    +0.050 A 
ATOM     13  C   UNL     1       4.272   4.399   0.000  0.00  0.00    +0.121 A 
ATOM     16  C   UNL     1       5.571   3.650   0.000  0.00  0.00    -0.002 A 
ATOM     20  C   UNL     1       5.571   2.150   0.000  0.00  0.00    +0.031 A 
BRANCH  16  17
ATOM     17  C   UNL     1       6.870   4.399   0.000  0.00  0.00    +0.016 C 
ATOM     18  C   UNL     1       8.169   3.650   0.000  0.00  0.00    +0.012 C 
ATOM     19  C   UNL     1       6.870   5.899   0.000  0.00  0.00    +0.012 C 
ENDBRANCH  16  17
BRANCH  13  14
ATOM     14  O   UNL     1       4.272   5.899   0.000  0.00  0.00    -0.506 OA
ATOM     15  H   UNL     1       5.084   6.368   0.000  0.00  0.00    +0.292 HD
ENDBRANCH  13  14
ENDBRANCH   7   9
BRANCH   3   2
ATOM      1  C   UNL     1       9.468  -0.101   0.000  0.00  0.00    +0.027 A 
ATOM      2  C   UNL     1       8.169  -0.851   0.000  0.00  0.00    +0.035 A 
ATOM     21  C   UNL     1       8.169  -2.350   0.000  0.00  0.00    +0.027 A 
ATOM     22  C   UNL     1       9.468  -3.100   0.000  0.00  0.00    +0.047 A 
ATOM     23  C   UNL     1      10.767  -2.350   0.000  0.00  0.00    +0.121 A 
ATOM     27  C   UNL     1      10.767  -0.851   0.000  0.00  0.00    +0.047 A 
BRANCH  23  24
ATOM     24  O   UNL     1      12.066  -3.100   0.000  0.00  0.00    -0.492 OA
BRANCH  24  25
ATOM     25  C   UNL     1      13.365  -2.350   0.000  0.00  0.00    +0.225 C 
ATOM     26  C   UNL     1      14.664  -3.100   0.000  0.00  0.00    +0.048 C 
ENDBRANCH  24  25
ENDBRANCH  23  24
ENDBRANCH   3   2
TORSDOF 6