REMARK  Name = 331977
REMARK  4 active torsions:
REMARK  status: ('A' for Active; 'I' for Inactive)
REMARK    1  A    between atoms: C_1  and  C_11
REMARK    2  A    between atoms: C_9  and  C_14
REMARK    3  A    between atoms: N_10  and  C_13
REMARK    4  A    between atoms: C_11  and  C_12
REMARK                            x       y       z     vdW  Elec       q    Type
REMARK                         _______ _______ _______ _____ _____    ______ ____
ROOT
ATOM      1  C   UNL     1       1.865   2.852   0.000  0.00  0.00    +0.096 A 
ATOM      4  N   UNL     1       1.708   1.360   0.000  0.00  0.00    -0.082 NA
ATOM      5  O   UNL     1       3.078   0.750   0.000  0.00  0.00    -0.354 OA
ATOM      6  C   UNL     1       4.082   1.865   0.000  0.00  0.00    +0.175 A 
ATOM      7  C   UNL     1       5.582   1.865   0.000  0.00  0.00    +0.076 A 
ATOM      8  C   UNL     1       6.332   3.164   0.000  0.00  0.00    +0.055 A 
ATOM     15  N   UNL     1       5.582   4.463   0.000  0.00  0.00    -0.310 N 
ATOM     16  C   UNL     1       6.332   5.762   0.000  0.00  0.00    +0.152 C 
ATOM     17  C   UNL     1       4.082   4.463   0.000  0.00  0.00    +0.264 A 
ATOM     18  O   UNL     1       3.332   5.762   0.000  0.00  0.00    -0.267 OA
ATOM     19  C   UNL     1       3.332   3.164   0.000  0.00  0.00    +0.109 A 
ENDROOT
BRANCH   8   9
ATOM      9  C   UNL     1       7.832   3.164   0.000  0.00  0.00    -0.001 A 
ATOM     10  C   UNL     1       8.582   1.865   0.000  0.00  0.00    +0.010 A 
ATOM     11  C   UNL     1      10.082   1.865   0.000  0.00  0.00    +0.001 A 
ATOM     12  C   UNL     1      10.832   3.164   0.000  0.00  0.00    +0.000 A 
ATOM     13  C   UNL     1      10.082   4.463   0.000  0.00  0.00    +0.001 A 
ATOM     14  C   UNL     1       8.582   4.463   0.000  0.00  0.00    +0.010 A 
ENDBRANCH   8   9
BRANCH   1   2
ATOM      2  C   UNL     1       0.750   3.856   0.000  0.00  0.00    +0.056 C 
ATOM      3  C   UNL     1       1.062   5.323   0.000  0.00  0.00    +0.010 C 
ENDBRANCH   1   2
TORSDOF 2