REMARK  Name = 33353
REMARK  5 active torsions:
REMARK  status: ('A' for Active; 'I' for Inactive)
REMARK    1  A    between atoms: C_7  and  N_22
REMARK    2  A    between atoms: C_9  and  N_23
REMARK    3  A    between atoms: C_10  and  C_24
REMARK    4  A    between atoms: C_13  and  C_18
REMARK    5  A    between atoms: C_19  and  C_20
REMARK                            x       y       z     vdW  Elec       q    Type
REMARK                         _______ _______ _______ _____ _____    ______ ____
ROOT
ATOM     13  C   UNL     1      -7.245  -3.000   0.000  0.00  0.00    +0.034 A 
ATOM     14  C   UNL     1      -5.946  -3.750   0.000  0.00  0.00    +0.035 A 
ATOM     15  C   UNL     1      -4.647  -3.000   0.000  0.00  0.00    +0.023 A 
ATOM     16  C   UNL     1      -3.348  -3.750   0.000  0.00  0.00    +0.036 A 
ATOM     20  C   UNL     1      -2.049  -3.000   0.000  0.00  0.00    +0.046 A 
ATOM     21  C   UNL     1      -2.049  -1.500   0.000  0.00  0.00    +0.041 A 
ATOM     22  C   UNL     1      -0.750  -0.750   0.000  0.00  0.00    +0.065 C 
ATOM     23  N   UNL     1      -3.348  -0.750   0.000  0.00  0.00    -0.252 NA
ATOM     24  C   UNL     1      -4.647  -1.500   0.000  0.00  0.00    +0.073 A 
ATOM     25  C   UNL     1      -5.946  -0.750   0.000  0.00  0.00    +0.030 A 
ATOM     26  C   UNL     1      -7.245  -1.500   0.000  0.00  0.00    +0.025 A 
ENDROOT
BRANCH  13  11
ATOM     10  C   UNL     1      -8.544  -5.250   0.000  0.00  0.00    +0.241 C 
ATOM     11  N   UNL     1      -8.544  -3.750   0.000  0.00  0.00    -0.282 N 
ATOM     12  H   UNL     1      -9.397  -3.258   0.000  0.00  0.00    +0.155 HD
ATOM     27  O   UNL     1      -7.245  -6.000   0.000  0.00  0.00    -0.270 OA
BRANCH  10   9
ATOM      8  C   UNL     1     -11.142  -5.250   0.000  0.00  0.00    +0.014 C 
ATOM      9  C   UNL     1      -9.843  -6.000   0.000  0.00  0.00    +0.068 C 
BRANCH   8   7
ATOM      1 CL   UNL     1     -13.740  -3.750   0.000  0.00  0.00    -0.083 Cl
ATOM      2  C   UNL     1     -12.441  -3.000   0.000  0.00  0.00    +0.048 A 
ATOM      3  C   UNL     1     -12.441  -1.500   0.000  0.00  0.00    +0.020 A 
ATOM      4  C   UNL     1     -11.142  -0.750   0.000  0.00  0.00    +0.001 A 
ATOM      5  C   UNL     1      -9.843  -1.500   0.000  0.00  0.00    +0.001 A 
ATOM      6  C   UNL     1      -9.843  -3.000   0.000  0.00  0.00    +0.009 A 
ATOM      7  C   UNL     1     -11.142  -3.750   0.000  0.00  0.00    -0.007 A 
ENDBRANCH   8   7
ENDBRANCH  10   9
ENDBRANCH  13  11
BRANCH  16  17
ATOM     17  N   UNL     1      -3.348  -5.250   0.000  0.00  0.00    -0.357 N 
ATOM     18  H   UNL     1      -2.495  -5.742   0.000  0.00  0.00    +0.142 HD
ATOM     19  H   UNL     1      -4.201  -5.742   0.000  0.00  0.00    +0.142 HD
ENDBRANCH  16  17
TORSDOF 4