REMARK  Name = 330796
REMARK  5 active torsions:
REMARK  status: ('A' for Active; 'I' for Inactive)
REMARK    1  A    between atoms: O_1  and  C_4
REMARK    2  A    between atoms: O_1  and  C_14
REMARK    3  A    between atoms: O_2  and  C_3
REMARK    4  A    between atoms: O_2  and  C_15
REMARK    5  A    between atoms: C_13  and  C_16
REMARK                            x       y       z     vdW  Elec       q    Type
REMARK                         _______ _______ _______ _____ _____    ______ ____
ROOT
ATOM      3  C   UNL     1       4.464   2.903   0.000  0.00  0.00    +0.163 A 
ATOM      4  C   UNL     1       5.931   3.215   0.000  0.00  0.00    +0.068 A 
ATOM      5  C   UNL     1       6.934   2.100   0.000  0.00  0.00    +0.104 A 
ATOM      6  C   UNL     1       8.434   2.100   0.000  0.00  0.00    +0.265 C 
ATOM      7  C   UNL     1       8.898   0.673   0.000  0.00  0.00    +0.274 C 
ATOM     14  N   UNL     1       7.684  -0.208   0.000  0.00  0.00    -0.160 N 
ATOM     15  O   UNL     1       7.684  -1.708   0.000  0.00  0.00    -0.619 OA
ATOM     16  O   UNL     1       9.316   3.314   0.000  0.00  0.00    -0.280 OA
ATOM     17  C   UNL     1       6.471   0.673   0.000  0.00  0.00    +0.234 A 
ATOM     18  C   UNL     1       5.004   0.362   0.000  0.00  0.00    +0.129 A 
ATOM     19  C   UNL     1       4.000   1.476   0.000  0.00  0.00    +0.168 A 
ENDROOT
BRANCH   7   8
ATOM      8  C   UNL     1      10.325   0.210   0.000  0.00  0.00    +0.051 A 
ATOM      9  C   UNL     1      10.637  -1.257   0.000  0.00  0.00    +0.014 A 
ATOM     10  C   UNL     1      12.063  -1.721   0.000  0.00  0.00    +0.001 A 
ATOM     11  C   UNL     1      13.178  -0.717   0.000  0.00  0.00    +0.000 A 
ATOM     12  C   UNL     1      12.866   0.750   0.000  0.00  0.00    +0.001 A 
ATOM     13  C   UNL     1      11.439   1.214   0.000  0.00  0.00    +0.014 A 
ENDBRANCH   7   8
BRANCH   3   1
ATOM      1  O   UNL     1       3.460   4.018   0.000  0.00  0.00    -0.491 OA
ATOM      2  C   UNL     1       3.923   5.444   0.000  0.00  0.00    +0.277 C 
ENDBRANCH   3   1
BRANCH  19  20
ATOM     20  O   UNL     1       2.533   1.164   0.000  0.00  0.00    -0.491 OA
ATOM     21  C   UNL     1       1.529   2.279   0.000  0.00  0.00    +0.277 C 
ENDBRANCH  19  20
TORSDOF 3