REMARK  Name = 329676
REMARK  6 active torsions:
REMARK  status: ('A' for Active; 'I' for Inactive)
REMARK    1  A    between atoms: C_1  and  N_9
REMARK    2  A    between atoms: N_3  and  C_12
REMARK    3  A    between atoms: C_4  and  C_14
REMARK    4  A    between atoms: O_6  and  C_8
REMARK    5  A    between atoms: O_6  and  C_13
REMARK    6  A    between atoms: C_12  and  C_13
REMARK                            x       y       z     vdW  Elec       q    Type
REMARK                         _______ _______ _______ _____ _____    ______ ____
ROOT
ATOM      1  C   UNL     1      -6.666   4.964   0.000  0.00  0.00    +0.368 A 
ATOM      5  C   UNL     1      -7.781   5.967   0.000  0.00  0.00    +0.217 A 
ATOM      6  N   UNL     1      -9.080   5.217   0.000  0.00  0.00    -0.234 NA
ATOM      7  C   UNL     1      -8.768   3.750   0.000  0.00  0.00    +0.112 A 
ATOM      8  C   UNL     1      -9.772   2.635   0.000  0.00  0.00    +0.086 C 
ATOM      9  N   UNL     1      -7.276   3.593   0.000  0.00  0.00    -0.267 N 
ENDROOT
BRANCH   1   2
ATOM      2  N   UNL     1      -5.199   5.275   0.000  0.00  0.00    +0.100 N 
ATOM      3  O   UNL     1      -4.195   4.161   0.000  0.00  0.00    +0.043 OA
ATOM      4  O   UNL     1      -4.736   6.702   0.000  0.00  0.00    -0.575 OA
ENDBRANCH   1   2
BRANCH   9  10
ATOM     10  C   UNL     1      -6.526   2.294   0.000  0.00  0.00    +0.170 C 
BRANCH  10  11
ATOM     11  C   UNL     1      -7.276   0.995   0.000  0.00  0.00    +0.255 C 
BRANCH  11  12
ATOM     12  O   UNL     1      -6.526  -0.304   0.000  0.00  0.00    -0.449 OA
BRANCH  12  13
ATOM     13  C   UNL     1      -5.026  -0.304   0.000  0.00  0.00    +0.398 C 
ATOM     14  N   UNL     1      -4.276  -1.603   0.000  0.00  0.00    -0.295 N 
ATOM     15  H   UNL     1      -3.292  -1.603   0.000  0.00  0.00    +0.148 HD
ATOM     16  H   UNL     1      -4.769  -2.456   0.000  0.00  0.00    +0.148 HD
ATOM     17  O   UNL     1      -4.276   0.995   0.000  0.00  0.00    -0.227 OA
ENDBRANCH  12  13
ENDBRANCH  11  12
ENDBRANCH  10  11
ENDBRANCH   9  10
TORSDOF 5