REMARK  Name = 338564
REMARK  4 active torsions:
REMARK  status: ('A' for Active; 'I' for Inactive)
REMARK    1  A    between atoms: C_6  and  N_7
REMARK    2  A    between atoms: C_12  and  C_13
REMARK    3  A    between atoms: C_13  and  C_17
REMARK    4  A    between atoms: N_14  and  N_18
REMARK                            x       y       z     vdW  Elec       q    Type
REMARK                         _______ _______ _______ _____ _____    ______ ____
ROOT
ATOM      1 CL   UNL     1      -3.995   7.570   0.000  0.00  0.00    -0.081 Cl
ATOM      2  C   UNL     1      -2.495   7.570   0.000  0.00  0.00    +0.065 A 
ATOM      3  C   UNL     1      -1.745   6.271   0.000  0.00  0.00    +0.065 A 
ATOM      9  C   UNL     1      -0.245   6.271   0.000  0.00  0.00    +0.037 A 
ATOM     10  C   UNL     1       0.505   7.570   0.000  0.00  0.00    -0.000 A 
ATOM     21  C   UNL     1      -0.245   8.869   0.000  0.00  0.00    +0.011 A 
ATOM     22  C   UNL     1      -1.745   8.869   0.000  0.00  0.00    +0.023 A 
ENDROOT
BRANCH   3   4
ATOM      4  N   UNL     1      -2.495   4.972   0.000  0.00  0.00    -0.322 N 
ATOM      5  C   UNL     1      -1.885   3.602   0.000  0.00  0.00    +0.091 A 
ATOM      6  C   UNL     1      -3.000   2.598   0.000  0.00  0.00    +0.019 A 
ATOM      7  C   UNL     1      -4.299   3.348   0.000  0.00  0.00    +0.019 A 
ATOM      8  C   UNL     1      -3.987   4.815   0.000  0.00  0.00    +0.091 A 
ENDBRANCH   3   4
BRANCH  10  11
ATOM     11  C   UNL     1       2.005   7.570   0.000  0.00  0.00    +0.063 C 
ATOM     12  C   UNL     1       2.755   6.271   0.000  0.00  0.00    +0.068 C 
ATOM     13  N   UNL     1       2.755   8.869   0.000  0.00  0.00    -0.183 NA
BRANCH  13  14
ATOM     14  N   UNL     1       4.255   8.869   0.000  0.00  0.00    -0.191 N 
ATOM     15  H   UNL     1       4.747   9.722   0.000  0.00  0.00    +0.179 HD
ATOM     16  C   UNL     1       5.005   7.570   0.000  0.00  0.00    +0.317 C 
ATOM     17  N   UNL     1       6.505   7.570   0.000  0.00  0.00    -0.312 N 
ATOM     18  H   UNL     1       6.997   8.423   0.000  0.00  0.00    +0.147 HD
ATOM     19  H   UNL     1       6.997   6.718   0.000  0.00  0.00    +0.147 HD
ATOM     20  O   UNL     1       4.255   6.271   0.000  0.00  0.00    -0.251 OA
ENDBRANCH  13  14
ENDBRANCH  10  11
TORSDOF 3