REMARK  Name = 337832
REMARK  11 active torsions:
REMARK  status: ('A' for Active; 'I' for Inactive)
REMARK    1  A    between atoms: C_3  and  C_16
REMARK    2  A    between atoms: C_3  and  C_17
REMARK    3  A    between atoms: O_8  and  C_9
REMARK    4  A    between atoms: O_8  and  C_21
REMARK    5  A    between atoms: C_14  and  N_22
REMARK    6  A    between atoms: N_18  and  C_19
REMARK    7  A    between atoms: C_19  and  C_20
REMARK    8  A    between atoms: C_20  and  C_21
REMARK    9  A    between atoms: C_25  and  C_26
REMARK   10  A    between atoms: C_25  and  S_27
REMARK   11  A    between atoms: S_27  and  O_30
REMARK                            x       y       z     vdW  Elec       q    Type
REMARK                         _______ _______ _______ _____ _____    ______ ____
ROOT
ATOM      2  S   UNL     1      -4.798  11.777   0.000  0.00  0.00    +0.079 S 
ATOM      5  O   UNL     1      -3.299  11.777   0.000  0.00  0.00    -0.147 OA
ATOM      6  O   UNL     1      -6.298  11.777   0.000  0.00  0.00    -0.147 OA
ENDROOT
BRANCH   2   1
ATOM      1  C   UNL     1      -4.798  13.277   0.000  0.00  0.00    +0.194 C 
ATOM      7  C   UNL     1      -3.499  14.027   0.000  0.00  0.00    +0.030 C 
ENDBRANCH   2   1
BRANCH   2   3
ATOM      3  O   UNL     1      -4.798  10.277   0.000  0.00  0.00    -0.254 OA
ATOM      4  H   UNL     1      -5.639   9.792   0.000  0.00  0.00    +0.244 HD
ENDBRANCH   2   3
TORSDOF 2