REMARK  Name = 335048
REMARK  1 active torsions:
REMARK  status: ('A' for Active; 'I' for Inactive)
REMARK    1  A    between atoms: C_13  and  O_18
REMARK                            x       y       z     vdW  Elec       q    Type
REMARK                         _______ _______ _______ _____ _____    ______ ____
ROOT
ATOM      1  C   UNL     1      -2.025   6.107   0.000  0.00  0.00    +0.001 A 
ATOM      2  C   UNL     1      -2.025   4.607   0.000  0.00  0.00    +0.001 A 
ATOM      3  C   UNL     1      -0.726   3.857   0.000  0.00  0.00    +0.014 A 
ATOM      4  C   UNL     1       0.573   4.607   0.000  0.00  0.00    +0.046 A 
ATOM      5  C   UNL     1       2.000   4.143   0.000  0.00  0.00    +0.252 C 
ATOM      6  O   UNL     1       2.463   2.717   0.000  0.00  0.00    -0.270 OA
ATOM      7  N   UNL     1       2.882   5.357   0.000  0.00  0.00    -0.266 N 
ATOM      8  C   UNL     1       4.373   5.514   0.000  0.00  0.00    +0.120 C 
ATOM      9  C   UNL     1       4.983   6.884   0.000  0.00  0.00    +0.077 C 
ATOM     10  C   UNL     1       4.102   8.098   0.000  0.00  0.00    +0.079 C 
ATOM     11  N   UNL     1       4.414   9.565   0.000  0.00  0.00    -0.150 NA
ATOM     12  N   UNL     1       3.115  10.315   0.000  0.00  0.00    -0.111 NA
ATOM     13  C   UNL     1       2.000   9.311   0.000  0.00  0.00    +0.243 C 
ATOM     16  C   UNL     1       2.610   7.941   0.000  0.00  0.00    +0.083 C 
ATOM     17  C   UNL     1       2.000   6.570   0.000  0.00  0.00    +0.058 C 
ATOM     18  C   UNL     1       0.573   6.107   0.000  0.00  0.00    +0.009 A 
ATOM     19  C   UNL     1      -0.726   6.857   0.000  0.00  0.00    +0.010 A 
ENDROOT
BRANCH  13  14
ATOM     14  O   UNL     1       0.533   9.623   0.000  0.00  0.00    -0.491 OA
ATOM     15  H   UNL     1       0.243  10.514   0.000  0.00  0.00    +0.294 HD
ENDBRANCH  13  14
TORSDOF 1