REMARK  Name = 33182
REMARK  1 active torsions:
REMARK  status: ('A' for Active; 'I' for Inactive)
REMARK    1  A    between atoms: N_9  and  C_18
REMARK                            x       y       z     vdW  Elec       q    Type
REMARK                         _______ _______ _______ _____ _____    ______ ____
ROOT
ATOM      1  O   UNL     1      -3.549  -2.332   0.000  0.00  0.00    -0.247 OA
ATOM      2  C   UNL     1      -2.732  -1.073   0.000  0.00  0.00    +0.326 A 
ATOM      3  N   UNL     1      -1.234  -1.151   0.000  0.00  0.00    -0.292 N 
ATOM      4  H   UNL     1      -0.553  -2.487   0.000  0.00  0.00    +0.172 HD
ATOM      5  C   UNL     1      -0.418   0.108   0.000  0.00  0.00    +0.148 A 
ATOM      6  C   UNL     1      -1.100   1.444   0.000  0.00  0.00    +0.114 A 
ATOM      7  C   UNL     1      -2.598   1.521   0.000  0.00  0.00    +0.115 A 
ATOM      8  S   UNL     1      -3.280   2.857   0.000  0.00  0.00    -0.030 S 
ATOM      9  N   UNL     1      -0.040   2.505   0.000  0.00  0.00    -0.330 N 
ATOM     10  H   UNL     1      -0.276   3.987   0.000  0.00  0.00    +0.168 HD
ATOM     11  C   UNL     1       1.297   1.825   0.000  0.00  0.00    +0.165 A 
ATOM     12  S   UNL     1       2.633   2.507   0.000  0.00  0.00    -0.012 S 
ATOM     13  N   UNL     1       1.063   0.343   0.000  0.00  0.00    -0.274 N 
ATOM     20  N   UNL     1      -3.414   0.263   0.000  0.00  0.00    -0.300 N 
ATOM     21  H   UNL     1      -4.912   0.340   0.000  0.00  0.00    +0.171 HD
ENDROOT
BRANCH  13  14
ATOM     14  C   UNL     1       2.124  -0.717   0.000  0.00  0.00    +0.050 A 
ATOM     15  C   UNL     1       1.737  -2.166   0.000  0.00  0.00    +0.026 A 
ATOM     16  C   UNL     1       2.799  -3.226   0.000  0.00  0.00    +0.002 A 
ATOM     17  C   UNL     1       4.247  -2.836   0.000  0.00  0.00    +0.000 A 
ATOM     18  C   UNL     1       4.634  -1.387   0.000  0.00  0.00    +0.002 A 
ATOM     19  C   UNL     1       3.573  -0.327   0.000  0.00  0.00    +0.026 A 
ENDBRANCH  13  14
TORSDOF 1