REMARK  Name = 338519
REMARK  9 active torsions:
REMARK  status: ('A' for Active; 'I' for Inactive)
REMARK    1  A    between atoms: C_3  and  C_6
REMARK    2  A    between atoms: C_10  and  C_11
REMARK    3  A    between atoms: C_11  and  C_19
REMARK    4  A    between atoms: C_12  and  C_21
REMARK    5  A    between atoms: C_17  and  N_18
REMARK    6  A    between atoms: N_18  and  C_22
REMARK    7  A    between atoms: N_18  and  C_23
REMARK    8  A    between atoms: C_23  and  C_24
REMARK    9  A    between atoms: C_24  and  C_25
REMARK                            x       y       z     vdW  Elec       q    Type
REMARK                         _______ _______ _______ _____ _____    ______ ____
ROOT
ATOM      8  C   UNL     1       6.750   4.647   0.000  0.00  0.00    +0.059 C 
ATOM      9  C   UNL     1       7.500   3.348   0.000  0.00  0.00    +0.027 C 
ENDROOT
BRANCH   8   7
ATOM      5  C   UNL     1       3.000   3.348   0.000  0.00  0.00    +0.055 A 
ATOM      6  C   UNL     1       4.500   3.348   0.000  0.00  0.00    +0.021 A 
ATOM      7  C   UNL     1       5.250   4.647   0.000  0.00  0.00    -0.007 A 
ATOM     24  C   UNL     1       4.500   5.946   0.000  0.00  0.00    +0.009 A 
ATOM     25  C   UNL     1       3.000   5.946   0.000  0.00  0.00    +0.001 A 
ATOM     26  C   UNL     1       2.250   4.647   0.000  0.00  0.00    +0.012 A 
BRANCH   5   2
ATOM      1  F   UNL     1       0.750   2.049   0.000  0.00  0.00    -0.166 F 
ATOM      2  C   UNL     1       2.250   2.049   0.000  0.00  0.00    +0.417 C 
ATOM      3  F   UNL     1       1.500   0.750   0.000  0.00  0.00    -0.166 F 
ATOM      4  F   UNL     1       3.000   0.750   0.000  0.00  0.00    -0.166 F 
ENDBRANCH   5   2
ENDBRANCH   8   7
BRANCH   9  10
ATOM     10  C   UNL     1       9.000   3.348   0.000  0.00  0.00    -0.024 A 
ATOM     11  C   UNL     1       9.750   2.049   0.000  0.00  0.00    +0.010 A 
ATOM     12  C   UNL     1      11.250   2.049   0.000  0.00  0.00    +0.024 A 
ATOM     13  C   UNL     1      12.000   3.348   0.000  0.00  0.00    +0.029 A 
ATOM     20  C   UNL     1      11.250   4.647   0.000  0.00  0.00    +0.024 A 
ATOM     21  C   UNL     1       9.750   4.647   0.000  0.00  0.00    +0.010 A 
BRANCH  13  14
ATOM     14  N   UNL     1      13.500   3.348   0.000  0.00  0.00    -0.332 N 
ATOM     19  C   UNL     1      14.250   4.647   0.000  0.00  0.00    +0.129 C 
BRANCH  14  15
ATOM     15  C   UNL     1      14.250   2.049   0.000  0.00  0.00    +0.119 C 
BRANCH  15  16
ATOM     16  C   UNL     1      15.750   2.049   0.000  0.00  0.00    +0.137 C 
BRANCH  16  17
ATOM     17  C   UNL     1      16.500   3.348   0.000  0.00  0.00    +0.064 C 
ATOM     18  N   UNL     1      17.250   4.647   0.000  0.00  0.00    -0.197 NA
ENDBRANCH  16  17
ENDBRANCH  15  16
ENDBRANCH  14  15
ENDBRANCH  13  14
ENDBRANCH   9  10
BRANCH   8  22
ATOM     22  C   UNL     1       7.500   5.946   0.000  0.00  0.00    +0.100 C 
ATOM     23  N   UNL     1       8.250   7.245   0.000  0.00  0.00    -0.191 NA
ENDBRANCH   8  22
TORSDOF 8