REMARK  Name = 329255
REMARK  4 active torsions:
REMARK  status: ('A' for Active; 'I' for Inactive)
REMARK    1  A    between atoms: C_3  and  C_19
REMARK    2  A    between atoms: C_12  and  N_21
REMARK    3  A    between atoms: C_16  and  S_17
REMARK    4  A    between atoms: S_17  and  C_22
REMARK                            x       y       z     vdW  Elec       q    Type
REMARK                         _______ _______ _______ _____ _____    ______ ____
ROOT
ATOM      1  C   UNL     1      -1.002   4.736   0.000  0.00  0.00    +0.005 A 
ATOM      2  C   UNL     1      -1.002   3.236   0.000  0.00  0.00    +0.001 A 
ATOM      3  C   UNL     1       0.297   2.486   0.000  0.00  0.00    +0.017 A 
ATOM      4  C   UNL     1       1.596   3.236   0.000  0.00  0.00    +0.041 A 
ATOM      5  S   UNL     1       3.022   2.773   0.000  0.00  0.00    -0.052 S 
ATOM      6  C   UNL     1       3.904   3.986   0.000  0.00  0.00    +0.167 A 
ATOM      7  N   UNL     1       5.404   3.986   0.000  0.00  0.00    -0.248 N 
ATOM      8  H   UNL     1       5.896   3.133   0.000  0.00  0.00    +0.158 HD
ATOM      9  C   UNL     1       6.154   5.285   0.000  0.00  0.00    +0.310 C 
ATOM     10  N   UNL     1       7.654   5.285   0.000  0.00  0.00    -0.269 N 
ATOM     11  H   UNL     1       8.146   4.432   0.000  0.00  0.00    +0.156 HD
ATOM     20  O   UNL     1       5.404   6.584   0.000  0.00  0.00    -0.252 OA
ATOM     21  N   UNL     1       3.022   5.200   0.000  0.00  0.00    -0.224 NA
ATOM     22  C   UNL     1       1.596   4.736   0.000  0.00  0.00    +0.083 A 
ATOM     23  C   UNL     1       0.297   5.486   0.000  0.00  0.00    -0.024 A 
ATOM     24  C   UNL     1       0.297   6.986   0.000  0.00  0.00    +0.046 C 
ENDROOT
BRANCH  10  12
ATOM     12  C   UNL     1       8.404   6.584   0.000  0.00  0.00    +0.036 A 
ATOM     13  C   UNL     1       9.904   6.584   0.000  0.00  0.00    +0.038 A 
ATOM     14  C   UNL     1      10.654   7.883   0.000  0.00  0.00    +0.009 A 
ATOM     17  C   UNL     1       9.904   9.182   0.000  0.00  0.00    +0.015 A 
ATOM     18  C   UNL     1       8.404   9.182   0.000  0.00  0.00    +0.003 A 
ATOM     19  C   UNL     1       7.654   7.883   0.000  0.00  0.00    +0.023 A 
BRANCH  14  15
ATOM     15  S   UNL     1      12.154   7.883   0.000  0.00  0.00    -0.129 S 
ATOM     16  C   UNL     1      12.904   9.182   0.000  0.00  0.00    +0.090 C 
ENDBRANCH  14  15
ENDBRANCH  10  12
TORSDOF 2