REMARK  Name = 328130
REMARK  2 active torsions:
REMARK  status: ('A' for Active; 'I' for Inactive)
REMARK    1  A    between atoms: C_11  and  S_13
REMARK    2  A    between atoms: N_12  and  C_14
REMARK                            x       y       z     vdW  Elec       q    Type
REMARK                         _______ _______ _______ _____ _____    ______ ____
ROOT
ATOM      1  C   UNL     1      -3.558   4.850   0.000  0.00  0.00    +0.000 C 
ATOM      2  C   UNL     1      -2.948   3.479   0.000  0.00  0.00    +0.000 C 
ATOM      3  C   UNL     1      -1.496   3.103   0.000  0.00  0.00    +0.004 C 
ATOM      4  C   UNL     1      -0.296   4.003   0.000  0.00  0.00    +0.048 C 
ATOM      5  C   UNL     1      -0.252   5.502   0.000  0.00  0.00    +0.129 C 
ATOM      6  N   UNL     1       1.048   4.753   0.000  0.00  0.00    -0.238 NA
ATOM      7  C   UNL     1       2.162   5.757   0.000  0.00  0.00    +0.169 C 
ATOM     10  N   UNL     1       1.551   7.127   0.000  0.00  0.00    -0.212 N 
ATOM     17  N   UNL     1       0.060   6.970   0.000  0.00  0.00    -0.207 NA
ATOM     18  H   UNL     1      -0.945   8.084   0.000  0.00  0.00    +0.147 HD
ATOM     19  C   UNL     1      -1.396   6.472   0.000  0.00  0.00    +0.048 C 
ATOM     20  C   UNL     1      -2.868   6.181   0.000  0.00  0.00    +0.004 C 
ENDROOT
BRANCH  10  11
ATOM     11  C   UNL     1       2.301   8.426   0.000  0.00  0.00    +0.052 A 
ATOM     12  C   UNL     1       3.801   8.427   0.000  0.00  0.00    +0.025 A 
ATOM     13  C   UNL     1       4.550   9.726   0.000  0.00  0.00    +0.002 A 
ATOM     14  C   UNL     1       3.800  11.025   0.000  0.00  0.00    +0.000 A 
ATOM     15  C   UNL     1       2.300  11.024   0.000  0.00  0.00    +0.002 A 
ATOM     16  C   UNL     1       1.550   9.725   0.000  0.00  0.00    +0.025 A 
ENDBRANCH  10  11
BRANCH   7   8
ATOM      8  S   UNL     1       3.629   5.446   0.000  0.00  0.00    -0.107 S 
ATOM      9  H   UNL     1       4.050   4.152   0.000  0.00  0.00    +0.110 HD
ENDBRANCH   7   8
TORSDOF 2