REMARK  Name = 332670
REMARK  2 active torsions:
REMARK  status: ('A' for Active; 'I' for Inactive)
REMARK    1  A    between atoms: C_16  and  C_17
REMARK    2  A    between atoms: C_18  and  O_24
REMARK                            x       y       z     vdW  Elec       q    Type
REMARK                         _______ _______ _______ _____ _____    ______ ____
ROOT
ATOM      1  C   UNL     1       0.750   7.500   0.000  0.00  0.00    +0.001 A 
ATOM      2  C   UNL     1       0.750   6.000   0.000  0.00  0.00    +0.009 A 
ATOM      3  C   UNL     1       2.049   5.250   0.000  0.00  0.00    -0.008 A 
ATOM      4  C   UNL     1       2.049   3.750   0.000  0.00  0.00    -0.008 A 
ATOM      5  C   UNL     1       3.348   3.000   0.000  0.00  0.00    +0.008 A 
ATOM      6  C   UNL     1       3.348   1.500   0.000  0.00  0.00    +0.010 A 
ATOM      7  C   UNL     1       2.049   0.750   0.000  0.00  0.00    +0.001 A 
ATOM      8  C   UNL     1       0.750   1.500   0.000  0.00  0.00    +0.001 A 
ATOM      9  C   UNL     1       4.647   3.750   0.000  0.00  0.00    +0.075 A 
ATOM     10  N   UNL     1       6.074   3.287   0.000  0.00  0.00    -0.337 N 
ATOM     11  H   UNL     1       6.378   2.350   0.000  0.00  0.00    +0.167 HD
ATOM     12  C   UNL     1       6.955   4.500   0.000  0.00  0.00    +0.143 A 
ATOM     21  N   UNL     1       6.074   5.713   0.000  0.00  0.00    -0.227 NA
ATOM     22  C   UNL     1       4.647   5.250   0.000  0.00  0.00    +0.098 A 
ATOM     23  C   UNL     1       0.750   3.000   0.000  0.00  0.00    +0.009 A 
ATOM     24  C   UNL     1       3.348   6.000   0.000  0.00  0.00    +0.010 A 
ATOM     25  C   UNL     1       3.348   7.500   0.000  0.00  0.00    +0.011 A 
ATOM     26  C   UNL     1       2.049   8.250   0.000  0.00  0.00    +0.001 A 
ENDROOT
BRANCH  12  13
ATOM     13  C   UNL     1       8.455   4.500   0.000  0.00  0.00    +0.059 A 
ATOM     14  C   UNL     1       9.205   3.201   0.000  0.00  0.00    +0.127 A 
ATOM     17  C   UNL     1      10.705   3.201   0.000  0.00  0.00    +0.046 A 
ATOM     18  C   UNL     1      11.455   4.500   0.000  0.00  0.00    +0.004 A 
ATOM     19  C   UNL     1      10.705   5.799   0.000  0.00  0.00    +0.001 A 
ATOM     20  C   UNL     1       9.205   5.799   0.000  0.00  0.00    +0.015 A 
BRANCH  14  15
ATOM     15  O   UNL     1       8.455   1.902   0.000  0.00  0.00    -0.506 OA
ATOM     16  H   UNL     1       7.518   1.902   0.000  0.00  0.00    +0.292 HD
ENDBRANCH  14  15
ENDBRANCH  12  13
TORSDOF 2