REMARK  Name = 45815
REMARK  2 active torsions:
REMARK  status: ('A' for Active; 'I' for Inactive)
REMARK    1  A    between atoms: N_2  and  C_12
REMARK    2  A    between atoms: C_14  and  C_19
REMARK                            x       y       z     vdW  Elec       q    Type
REMARK                         _______ _______ _______ _____ _____    ______ ____
ROOT
ATOM      5  C   UNL     1      -1.574   6.274   0.000  0.00  0.00    +0.127 A 
ATOM      6  C   UNL     1      -0.275   5.524   0.000  0.00  0.00    +0.066 A 
ATOM      7  C   UNL     1       1.025   6.274   0.000  0.00  0.00    +0.045 A 
ATOM      8  C   UNL     1       2.324   5.524   0.000  0.00  0.00    +0.066 C 
ATOM      9  N   UNL     1       1.025   7.774   0.000  0.00  0.00    -0.219 NA
ATOM     10  C   UNL     1      -0.275   8.524   0.000  0.00  0.00    +0.220 A 
ATOM     11  N   UNL     1      -0.275  10.025   0.000  0.00  0.00    -0.295 N 
ATOM     12  C   UNL     1       1.025  10.775   0.000  0.00  0.00    +0.136 C 
ATOM     13  C   UNL     1       1.025  12.275   0.000  0.00  0.00    +0.179 C 
ATOM     14  O   UNL     1      -0.275  13.025   0.000  0.00  0.00    -0.377 OA
ATOM     15  C   UNL     1      -1.574  12.275   0.000  0.00  0.00    +0.179 C 
ATOM     16  C   UNL     1      -1.574  10.775   0.000  0.00  0.00    +0.136 C 
ATOM     17  N   UNL     1      -1.574   7.774   0.000  0.00  0.00    -0.199 NA
ENDROOT
BRANCH   5   4
ATOM      1  O   UNL     1      -5.471   4.024   0.000  0.00  0.00    -0.377 OA
ATOM      2  C   UNL     1      -4.172   3.275   0.000  0.00  0.00    +0.178 C 
ATOM      3  C   UNL     1      -2.873   4.024   0.000  0.00  0.00    +0.134 C 
ATOM      4  N   UNL     1      -2.873   5.524   0.000  0.00  0.00    -0.311 N 
ATOM     18  C   UNL     1      -4.172   6.274   0.000  0.00  0.00    +0.134 C 
ATOM     19  C   UNL     1      -5.471   5.524   0.000  0.00  0.00    +0.178 C 
ENDBRANCH   5   4
TORSDOF 1