REMARK  Name = 42135
REMARK  2 active torsions:
REMARK  status: ('A' for Active; 'I' for Inactive)
REMARK    1  A    between atoms: C_5  and  N_14
REMARK    2  A    between atoms: C_8  and  N_14
REMARK                            x       y       z     vdW  Elec       q    Type
REMARK                         _______ _______ _______ _____ _____    ______ ____
ROOT
ATOM      1  C   UNL     1      -8.524   2.324   0.000  0.00  0.00    +0.123 A 
ATOM      2  N   UNL     1      -7.774   3.623   0.000  0.00  0.00    -0.343 N 
ATOM      3  H   UNL     1      -8.267   4.475   0.000  0.00  0.00    +0.144 HD
ATOM      4  H   UNL     1      -6.790   3.623   0.000  0.00  0.00    +0.144 HD
ATOM      5  C   UNL     1      -7.774   1.025   0.000  0.00  0.00    +0.087 A 
ATOM      6  C   UNL     1      -8.524  -0.275   0.000  0.00  0.00    +0.130 A 
ATOM      7  N   UNL     1     -10.025  -0.275   0.000  0.00  0.00    -0.199 NA
ATOM      8  C   UNL     1     -10.775   1.025   0.000  0.00  0.00    +0.216 A 
ATOM      9  N   UNL     1     -12.275   1.025   0.000  0.00  0.00    -0.327 N 
ATOM     10  H   UNL     1     -12.767   0.172   0.000  0.00  0.00    +0.145 HD
ATOM     11  H   UNL     1     -12.767   1.877   0.000  0.00  0.00    +0.145 HD
ATOM     21  N   UNL     1     -10.025   2.324   0.000  0.00  0.00    -0.200 NA
ENDROOT
BRANCH   6  12
ATOM     12  N   UNL     1      -7.774  -1.574   0.000  0.00  0.00    -0.299 N 
ATOM     13  H   UNL     1      -8.524  -2.873   0.000  0.00  0.00    +0.154 HD
BRANCH  12  14
ATOM     14  C   UNL     1      -6.274  -1.574   0.000  0.00  0.00    +0.032 A 
ATOM     15  C   UNL     1      -5.524  -2.873   0.000  0.00  0.00    +0.024 A 
ATOM     16  C   UNL     1      -4.024  -2.873   0.000  0.00  0.00    +0.017 A 
ATOM     17  C   UNL     1      -3.275  -1.574   0.000  0.00  0.00    +0.018 A 
ATOM     18 BR   UNL     1      -1.775  -1.574   0.000  0.00  0.00    -0.050 Br
ATOM     19  C   UNL     1      -4.024  -0.275   0.000  0.00  0.00    +0.017 A 
ATOM     20  C   UNL     1      -5.524  -0.275   0.000  0.00  0.00    +0.024 A 
ENDBRANCH  12  14
ENDBRANCH   6  12
TORSDOF 2