REMARK  Name = 41805
REMARK  3 active torsions:
REMARK  status: ('A' for Active; 'I' for Inactive)
REMARK    1  A    between atoms: C_4  and  N_21
REMARK    2  A    between atoms: C_5  and  S_18
REMARK    3  A    between atoms: N_17  and  S_18
REMARK                            x       y       z     vdW  Elec       q    Type
REMARK                         _______ _______ _______ _____ _____    ______ ____
ROOT
ATOM      9  S   UNL     1       7.299  -1.848   0.000  0.00  0.00    +0.074 S 
ATOM     10  O   UNL     1       7.299  -3.348   0.000  0.00  0.00    -0.150 OA
ATOM     11  O   UNL     1       7.299  -0.348   0.000  0.00  0.00    -0.150 OA
ENDROOT
BRANCH   9  12
ATOM     12  N   UNL     1       5.799  -1.848   0.000  0.00  0.00    -0.198 N 
ATOM     13  H   UNL     1       5.307  -2.701   0.000  0.00  0.00    +0.175 HD
ATOM     14  C   UNL     1       5.049  -0.549   0.000  0.00  0.00    +0.157 A 
ATOM     15  C   UNL     1       3.549  -0.549   0.000  0.00  0.00    +0.156 A 
ATOM     16  N   UNL     1       2.799   0.750   0.000  0.00  0.00    -0.250 NA
ATOM     17  C   UNL     1       3.549   2.049   0.000  0.00  0.00    +0.089 A 
ATOM     18  C   UNL     1       2.799   3.348   0.000  0.00  0.00    +0.030 A 
ATOM     19  C   UNL     1       3.549   4.647   0.000  0.00  0.00    +0.002 A 
ATOM     20  C   UNL     1       5.049   4.647   0.000  0.00  0.00    +0.002 A 
ATOM     21  C   UNL     1       5.799   3.348   0.000  0.00  0.00    +0.030 A 
ATOM     22  C   UNL     1       5.049   2.049   0.000  0.00  0.00    +0.091 A 
ATOM     23  N   UNL     1       5.799   0.750   0.000  0.00  0.00    -0.228 NA
ENDBRANCH   9  12
BRANCH   9   8
ATOM      1  C   UNL     1      11.049  -0.549   0.000  0.00  0.00    +0.024 A 
ATOM      2  C   UNL     1      11.799  -1.848   0.000  0.00  0.00    +0.025 A 
ATOM      6  C   UNL     1      11.049  -3.147   0.000  0.00  0.00    +0.024 A 
ATOM      7  C   UNL     1       9.549  -3.147   0.000  0.00  0.00    +0.030 A 
ATOM      8  C   UNL     1       8.799  -1.848   0.000  0.00  0.00    +0.109 A 
ATOM     24  C   UNL     1       9.549  -0.549   0.000  0.00  0.00    +0.030 A 
BRANCH   2   3
ATOM      3  N   UNL     1      13.299  -1.848   0.000  0.00  0.00    -0.358 N 
ATOM      4  H   UNL     1      13.791  -0.995   0.000  0.00  0.00    +0.142 HD
ATOM      5  H   UNL     1      13.791  -2.701   0.000  0.00  0.00    +0.142 HD
ENDBRANCH   2   3
ENDBRANCH   9   8
TORSDOF 3