REMARK  Name = 43546
REMARK  5 active torsions:
REMARK  status: ('A' for Active; 'I' for Inactive)
REMARK    1  A    between atoms: C_2  and  C_5
REMARK    2  A    between atoms: C_3  and  O_12
REMARK    3  A    between atoms: O_4  and  C_5
REMARK    4  A    between atoms: O_4  and  C_10
REMARK    5  A    between atoms: C_10  and  C_11
REMARK                            x       y       z     vdW  Elec       q    Type
REMARK                         _______ _______ _______ _____ _____    ______ ____
ROOT
ATOM      1  C   UNL     1      -3.520   0.683   0.000  0.00  0.00    +0.123 A 
ATOM      2  C   UNL     1      -4.890   0.073   0.000  0.00  0.00    +0.139 A 
ATOM      3  C   UNL     1      -4.734  -1.419   0.000  0.00  0.00    +0.245 A 
ATOM      6  N   UNL     1      -3.266  -1.730   0.000  0.00  0.00    -0.135 NA
ATOM     12  N   UNL     1      -2.516  -0.431   0.000  0.00  0.00    -0.280 N 
ATOM     13  H   UNL     1      -1.025  -0.275   0.000  0.00  0.00    +0.188 HD
ENDROOT
BRANCH   3   4
ATOM      4  O   UNL     1      -5.848  -2.422   0.000  0.00  0.00    -0.491 OA
ATOM      5  H   UNL     1      -6.739  -2.133   0.000  0.00  0.00    +0.294 HD
ENDBRANCH   3   4
BRANCH   2   7
ATOM      7  C   UNL     1      -6.189   0.823   0.000  0.00  0.00    +0.346 C 
ATOM      8  O   UNL     1      -6.189   2.323   0.000  0.00  0.00    -0.245 OA
BRANCH   7   9
ATOM      9  O   UNL     1      -7.488   0.073   0.000  0.00  0.00    -0.461 OA
BRANCH   9  10
ATOM     10  C   UNL     1      -8.787   0.823   0.000  0.00  0.00    +0.229 C 
ATOM     11  C   UNL     1      -8.787   2.323   0.000  0.00  0.00    +0.048 C 
ENDBRANCH   9  10
ENDBRANCH   7   9
ENDBRANCH   2   7
TORSDOF 4