REMARK  Name = 44819
REMARK  4 active torsions:
REMARK  status: ('A' for Active; 'I' for Inactive)
REMARK    1  A    between atoms: C_7  and  C_10
REMARK    2  A    between atoms: C_7  and  C_13
REMARK    3  A    between atoms: C_10  and  C_11
REMARK    4  A    between atoms: C_13  and  C_14
REMARK                            x       y       z     vdW  Elec       q    Type
REMARK                         _______ _______ _______ _____ _____    ______ ____
ROOT
ATOM      1  S   UNL     1       0.750   0.750   0.000  0.00  0.00    +0.014 S 
ATOM      2  C   UNL     1       2.049   1.500   0.000  0.00  0.00    +0.276 C 
ATOM      3  N   UNL     1       3.348   0.750   0.000  0.00  0.00    +0.008 NA
ATOM      4  C   UNL     1       4.647   1.500   0.000  0.00  0.00    +0.293 C 
ATOM      5  N   UNL     1       5.946   0.750   0.000  0.00  0.00    -0.251 N 
ATOM      6  H   UNL     1       6.799   1.242   0.000  0.00  0.00    +0.288 HD
ATOM      7  H   UNL     1       5.946  -0.234   0.000  0.00  0.00    +0.288 HD
ATOM      8  C   UNL     1       4.647   3.000   0.000  0.00  0.00    +0.147 C 
ATOM     13  C   UNL     1       3.348   3.750   0.000  0.00  0.00    +0.238 C 
ATOM     14  O   UNL     1       3.348   5.250   0.000  0.00  0.00    -0.274 OA
ATOM     15  N   UNL     1       2.049   3.000   0.000  0.00  0.00    -0.244 N 
ATOM     16  H   UNL     1       0.750   3.750   0.000  0.00  0.00    +0.159 HD
ENDROOT
BRANCH   8   9
ATOM      9  C   UNL     1       6.124   2.740   0.000  0.00  0.00    +0.025 C 
ATOM     10  C   UNL     1       6.637   1.330   0.000  0.00  0.00    +0.005 C 
ENDBRANCH   8   9
BRANCH   8  11
ATOM     11  C   UNL     1       5.160   4.410   0.000  0.00  0.00    +0.025 C 
ATOM     12  C   UNL     1       6.637   4.670   0.000  0.00  0.00    +0.005 C 
ENDBRANCH   8  11
TORSDOF 2