REMARK  Name = 43344
REMARK  5 active torsions:
REMARK  status: ('A' for Active; 'I' for Inactive)
REMARK    1  A    between atoms: C_3  and  C_5
REMARK    2  A    between atoms: C_4  and  P_18
REMARK    3  A    between atoms: C_10  and  C_11
REMARK    4  A    between atoms: P_18  and  O_19
REMARK    5  A    between atoms: P_18  and  O_20
REMARK                            x       y       z     vdW  Elec       q    Type
REMARK                         _______ _______ _______ _____ _____    ______ ____
ROOT
ATOM      1  O   UNL     1       1.190  -7.880   0.000  0.00  0.00    -0.454 OA
ATOM      2  C   UNL     1      -0.024  -8.761   0.000  0.00  0.00    +0.150 A 
ATOM      9  C   UNL     1      -1.237  -7.880   0.000  0.00  0.00    +0.109 A 
ATOM     16  C   UNL     1      -0.774  -6.453   0.000  0.00  0.00    +0.066 A 
ATOM     17  C   UNL     1       0.726  -6.453   0.000  0.00  0.00    +0.137 A 
ENDROOT
BRANCH   2   3
ATOM      3  C   UNL     1      -0.024 -10.261   0.000  0.00  0.00    +0.018 A 
ATOM      4  C   UNL     1      -1.323 -11.011   0.000  0.00  0.00    +0.011 A 
ATOM      5  C   UNL     1      -1.323 -12.511   0.000  0.00  0.00    +0.001 A 
ATOM      6  C   UNL     1      -0.024 -13.261   0.000  0.00  0.00    +0.000 A 
ATOM      7  C   UNL     1       1.275 -12.511   0.000  0.00  0.00    +0.001 A 
ATOM      8  C   UNL     1       1.275 -11.011   0.000  0.00  0.00    +0.011 A 
ENDBRANCH   2   3
BRANCH  17  18
ATOM     18  C   UNL     1       1.608  -5.239   0.000  0.00  0.00    +0.017 A 
ATOM     19  C   UNL     1       0.998  -3.869   0.000  0.00  0.00    +0.011 A 
ATOM     20  C   UNL     1       1.880  -2.656   0.000  0.00  0.00    +0.001 A 
ATOM     21  C   UNL     1       3.371  -2.813   0.000  0.00  0.00    +0.000 A 
ATOM     22  C   UNL     1       3.982  -4.183   0.000  0.00  0.00    +0.001 A 
ATOM     23  C   UNL     1       3.100  -5.396   0.000  0.00  0.00    +0.011 A 
ENDBRANCH  17  18
BRANCH   9  10
ATOM     10  P   UNL     1      -2.664  -8.343   0.000  0.00  0.00    +0.362 P 
ATOM     15  O   UNL     1      -2.200  -9.770   0.000  0.00  0.00    -0.253 OA
BRANCH  10  11
ATOM     11  O   UNL     1      -3.127  -6.917   0.000  0.00  0.00    -0.321 OA
ATOM     12  H   UNL     1      -2.478  -6.196   0.000  0.00  0.00    +0.220 HD
ENDBRANCH  10  11
BRANCH  10  13
ATOM     13  O   UNL     1      -4.090  -8.807   0.000  0.00  0.00    -0.321 OA
ATOM     14  H   UNL     1      -4.811  -8.158   0.000  0.00  0.00    +0.220 HD
ENDBRANCH  10  13
ENDBRANCH   9  10
TORSDOF 5