REMARK  Name = 45745
REMARK  4 active torsions:
REMARK  status: ('A' for Active; 'I' for Inactive)
REMARK    1  A    between atoms: C_3  and  N_15
REMARK    2  A    between atoms: C_7  and  N_12
REMARK    3  A    between atoms: C_11  and  C_19
REMARK    4  A    between atoms: N_18  and  C_19
REMARK                            x       y       z     vdW  Elec       q    Type
REMARK                         _______ _______ _______ _____ _____    ______ ____
ROOT
ATOM      4  N   UNL     1       2.563   9.841   0.000  0.00  0.00    -0.292 N 
ATOM      5  H   UNL     1       2.392  10.810   0.000  0.00  0.00    +0.151 HD
ATOM      6  C   UNL     1       1.414   8.877   0.000  0.00  0.00    +0.304 C 
ATOM      7  O   UNL     1       0.004   9.390   0.000  0.00  0.00    -0.252 OA
ATOM      8  N   UNL     1       1.674   7.399   0.000  0.00  0.00    -0.269 N 
ATOM      9  H   UNL     1       2.566   6.983   0.000  0.00  0.00    +0.156 HD
ENDROOT
BRANCH   8  10
ATOM     10  C   UNL     1       0.375   6.649   0.000  0.00  0.00    +0.041 A 
ATOM     11  C   UNL     1       0.375   5.149   0.000  0.00  0.00    +0.107 A 
ATOM     12  C   UNL     1      -0.924   4.399   0.000  0.00  0.00    +0.275 A 
ATOM     16  C   UNL     1      -2.223   5.149   0.000  0.00  0.00    +0.084 A 
ATOM     17  C   UNL     1      -2.223   6.649   0.000  0.00  0.00    +0.008 A 
ATOM     18  C   UNL     1      -0.924   7.399   0.000  0.00  0.00    +0.024 A 
BRANCH  12  13
ATOM     13  N   UNL     1      -0.924   2.900   0.000  0.00  0.00    +0.080 N 
ATOM     14  O   UNL     1       0.375   2.150   0.000  0.00  0.00    +0.041 OA
ATOM     15  O   UNL     1      -2.223   2.150   0.000  0.00  0.00    -0.576 OA
ENDBRANCH  12  13
ENDBRANCH   8  10
BRANCH   4   3
ATOM      3  C   UNL     1       3.972   9.328   0.000  0.00  0.00    +0.180 C 
BRANCH   3   2
ATOM      1  O   UNL     1       3.191   6.772   0.000  0.00  0.00    -0.466 OA
ATOM      2  C   UNL     1       4.233   7.851   0.000  0.00  0.00    +0.122 A 
ATOM     19  C   UNL     1       5.581   7.193   0.000  0.00  0.00    +0.046 A 
ATOM     20  C   UNL     1       5.372   5.708   0.000  0.00  0.00    +0.041 A 
ATOM     21  C   UNL     1       3.895   5.447   0.000  0.00  0.00    +0.195 A 
ENDBRANCH   3   2
ENDBRANCH   4   3
TORSDOF 4