REMARK  Name = 4429
REMARK  2 active torsions:
REMARK  status: ('A' for Active; 'I' for Inactive)
REMARK    1  A    between atoms: C_1  and  C_13
REMARK    2  A    between atoms: C_11  and  C_14
REMARK                            x       y       z     vdW  Elec       q    Type
REMARK                         _______ _______ _______ _____ _____    ______ ____
ROOT
ATOM      2  C   UNL     1      -5.250  -3.348   0.000  0.00  0.00    +0.030 A 
ATOM      3  C   UNL     1      -4.500  -2.049   0.000  0.00  0.00    +0.012 A 
ATOM      4  C   UNL     1      -5.250  -0.750   0.000  0.00  0.00    +0.001 A 
ATOM      5  C   UNL     1      -6.750  -0.750   0.000  0.00  0.00    +0.001 A 
ATOM      6  C   UNL     1      -7.500  -2.049   0.000  0.00  0.00    +0.012 A 
ATOM      7  C   UNL     1      -6.750  -3.348   0.000  0.00  0.00    +0.030 A 
ENDROOT
BRANCH   2   1
ATOM      1  C   UNL     1      -4.500  -4.647   0.000  0.00  0.00    +0.167 A 
ATOM     20  N   UNL     1      -3.000  -4.647   0.000  0.00  0.00    -0.195 NA
ATOM     21  C   UNL     1      -2.250  -5.946   0.000  0.00  0.00    +0.217 A 
ATOM     22  N   UNL     1      -0.750  -5.946   0.000  0.00  0.00    -0.327 N 
ATOM     23  H   UNL     1      -0.258  -5.094   0.000  0.00  0.00    +0.145 HD
ATOM     24  H   UNL     1      -0.258  -6.799   0.000  0.00  0.00    +0.145 HD
ATOM     25  N   UNL     1      -3.000  -7.245   0.000  0.00  0.00    -0.181 NA
ATOM     26  C   UNL     1      -4.500  -7.245   0.000  0.00  0.00    +0.217 A 
ATOM     27  N   UNL     1      -5.250  -8.544   0.000  0.00  0.00    -0.327 N 
ATOM     28  H   UNL     1      -4.758  -9.397   0.000  0.00  0.00    +0.145 HD
ATOM     29  H   UNL     1      -6.234  -8.544   0.000  0.00  0.00    +0.145 HD
ATOM     30  N   UNL     1      -5.250  -5.946   0.000  0.00  0.00    -0.195 NA
ENDBRANCH   2   1
BRANCH   7   8
ATOM      8  C   UNL     1      -7.500  -4.647   0.000  0.00  0.00    +0.167 A 
ATOM      9  N   UNL     1      -9.000  -4.647   0.000  0.00  0.00    -0.195 NA
ATOM     10  C   UNL     1      -9.750  -5.946   0.000  0.00  0.00    +0.217 A 
ATOM     11  N   UNL     1     -11.250  -5.946   0.000  0.00  0.00    -0.327 N 
ATOM     12  H   UNL     1     -11.742  -6.799   0.000  0.00  0.00    +0.145 HD
ATOM     13  H   UNL     1     -11.742  -5.094   0.000  0.00  0.00    +0.145 HD
ATOM     14  N   UNL     1      -9.000  -7.245   0.000  0.00  0.00    -0.181 NA
ATOM     15  C   UNL     1      -7.500  -7.245   0.000  0.00  0.00    +0.217 A 
ATOM     16  N   UNL     1      -6.750  -8.544   0.000  0.00  0.00    -0.327 N 
ATOM     17  H   UNL     1      -5.766  -8.544   0.000  0.00  0.00    +0.145 HD
ATOM     18  H   UNL     1      -7.242  -9.397   0.000  0.00  0.00    +0.145 HD
ATOM     19  N   UNL     1      -6.750  -5.946   0.000  0.00  0.00    -0.195 NA
ENDBRANCH   7   8
TORSDOF 2