REMARK  Name = 43409
REMARK  3 active torsions:
REMARK  status: ('A' for Active; 'I' for Inactive)
REMARK    1  A    between atoms: N_6  and  C_17
REMARK    2  A    between atoms: C_13  and  C_18
REMARK    3  A    between atoms: C_18  and  O_19
REMARK                            x       y       z     vdW  Elec       q    Type
REMARK                         _______ _______ _______ _____ _____    ______ ____
ROOT
ATOM      1  N   UNL     1     -11.908  -0.017   0.000  0.00  0.00    -0.228 NA
ATOM      2  C   UNL     1     -11.298   1.353   0.000  0.00  0.00    +0.138 A 
ATOM      3  C   UNL     1      -9.806   1.510   0.000  0.00  0.00    +0.139 A 
ATOM      4  C   UNL     1      -8.925   0.296   0.000  0.00  0.00    +0.144 A 
ATOM      5  N   UNL     1      -7.498   0.760   0.000  0.00  0.00    -0.289 N 
ATOM     15  C   UNL     1      -7.498   2.260   0.000  0.00  0.00    +0.203 A 
ATOM     16  N   UNL     1      -9.535  -1.074   0.000  0.00  0.00    -0.330 N 
ATOM     17  H   UNL     1      -8.653  -2.288   0.000  0.00  0.00    +0.168 HD
ATOM     18  N   UNL     1      -8.925   2.723   0.000  0.00  0.00    -0.231 NA
ATOM     19  S   UNL     1     -12.180   2.567   0.000  0.00  0.00    -0.028 S 
ATOM     20  C   UNL     1     -11.027  -1.231   0.000  0.00  0.00    +0.199 A 
ENDROOT
BRANCH   5   6
ATOM      6  C   UNL     1      -6.285  -0.122   0.000  0.00  0.00    +0.222 C 
ATOM      7  C   UNL     1      -6.441  -1.614   0.000  0.00  0.00    +0.055 C 
ATOM      8  C   UNL     1      -5.228  -2.495   0.000  0.00  0.00    +0.007 C 
ATOM      9  C   UNL     1      -3.858  -1.885   0.000  0.00  0.00    +0.034 C 
ATOM     10  C   UNL     1      -3.701  -0.393   0.000  0.00  0.00    +0.146 C 
ATOM     14  O   UNL     1      -4.914   0.488   0.000  0.00  0.00    -0.351 OA
BRANCH  10  11
ATOM     11  C   UNL     1      -2.331   0.217   0.000  0.00  0.00    +0.187 C 
BRANCH  11  12
ATOM     12  O   UNL     1      -1.117  -0.665   0.000  0.00  0.00    -0.392 OA
ATOM     13  H   UNL     1      -1.219  -1.630   0.000  0.00  0.00    +0.210 HD
ENDBRANCH  11  12
ENDBRANCH  10  11
ENDBRANCH   5   6
TORSDOF 3