REMARK  Name = 42096
REMARK  5 active torsions:
REMARK  status: ('A' for Active; 'I' for Inactive)
REMARK    1  A    between atoms: C_3  and  AS_15
REMARK    2  A    between atoms: C_7  and  O_17
REMARK    3  A    between atoms: C_9  and  AS_15
REMARK    4  A    between atoms: C_13  and  O_14
REMARK    5  A    between atoms: AS_15  and  O_16
REMARK                            x       y       z     vdW  Elec       q    Type
REMARK                         _______ _______ _______ _____ _____    ______ ____
ROOT
ATOM      1  O   UNL     1      -4.922   1.976   0.000  0.00  0.00    +0.000 OA
ATOM      2 AS   UNL     1      -5.672   0.676   0.000  0.00  0.00    +0.000 As
ENDROOT
BRANCH   2   5
ATOM      5  C   UNL     1      -6.971   1.426   0.000  0.00  0.00    +0.000 A 
ATOM      6  C   UNL     1      -8.270   0.676   0.000  0.00  0.00    +0.000 A 
ATOM      7  C   UNL     1      -9.569   1.426   0.000  0.00  0.00    +0.000 A 
ATOM     10  C   UNL     1      -9.569   2.926   0.000  0.00  0.00    +0.000 A 
ATOM     11  C   UNL     1      -8.270   3.676   0.000  0.00  0.00    +0.000 A 
ATOM     12  C   UNL     1      -6.971   2.926   0.000  0.00  0.00    +0.000 A 
BRANCH   7   8
ATOM      8  O   UNL     1     -10.868   0.676   0.000  0.00  0.00    +0.000 OA
ATOM      9  H   UNL     1     -11.679   1.145   0.000  0.00  0.00    +0.000 HD
ENDBRANCH   7   8
ENDBRANCH   2   5
BRANCH   2  13
ATOM     13  C   UNL     1      -4.373  -0.074   0.000  0.00  0.00    +0.000 A 
ATOM     14  C   UNL     1      -4.373  -1.574   0.000  0.00  0.00    +0.000 A 
ATOM     15  C   UNL     1      -3.074  -2.324   0.000  0.00  0.00    +0.000 A 
ATOM     18  C   UNL     1      -1.775  -1.574   0.000  0.00  0.00    +0.000 A 
ATOM     19  C   UNL     1      -1.775  -0.074   0.000  0.00  0.00    +0.000 A 
ATOM     20  C   UNL     1      -3.074   0.676   0.000  0.00  0.00    +0.000 A 
BRANCH  15  16
ATOM     16  O   UNL     1      -3.074  -3.824   0.000  0.00  0.00    +0.000 OA
ATOM     17  H   UNL     1      -3.885  -4.292   0.000  0.00  0.00    +0.000 HD
ENDBRANCH  15  16
ENDBRANCH   2  13
BRANCH   2   3
ATOM      3  O   UNL     1      -6.422  -0.623   0.000  0.00  0.00    +0.000 OA
ATOM      4  H   UNL     1      -7.392  -0.623   0.000  0.00  0.00    +0.000 HD
ENDBRANCH   2   3
TORSDOF 5