REMARK  Name = 42014
REMARK  7 active torsions:
REMARK  status: ('A' for Active; 'I' for Inactive)
REMARK    1  A    between atoms: C_5  and  S_12
REMARK    2  A    between atoms: CA_6  and  C_9
REMARK    3  A    between atoms: C_9  and  OXT_11
REMARK    4  A    between atoms: S_12  and  C_13
REMARK    5  A    between atoms: C_13  and  C_14
REMARK    6  A    between atoms: C_14  and  C_15
REMARK    7  A    between atoms: C_15  and  C_16
REMARK                            x       y       z     vdW  Elec       q    Type
REMARK                         _______ _______ _______ _____ _____    ______ ____
ROOT
ATOM      1  N   UNL     1      -8.544  -2.250   0.000  0.00  0.00    -0.329 N 
ATOM      2  H   UNL     1      -8.544  -0.750   0.000  0.00  0.00    +0.168 HD
ATOM      3  CA  UNL     1      -9.843  -3.000   0.000  0.00  0.00    +0.131 A 
ATOM      8  C   UNL     1      -9.843  -4.500   0.000  0.00  0.00    +0.105 A 
ATOM      9  C   UNL     1      -8.544  -5.250   0.000  0.00  0.00    +0.275 A 
ATOM     10  N   UNL     1      -7.245  -4.500   0.000  0.00  0.00    -0.185 NA
ATOM     11  O   UNL     1      -8.544  -6.750   0.000  0.00  0.00    -0.266 OA
ATOM     12  C   UNL     1      -7.245  -3.000   0.000  0.00  0.00    +0.171 A 
ENDROOT
BRANCH   3   4
ATOM      4  C   UNL     1     -11.142  -2.250   0.000  0.00  0.00    +0.353 C 
ATOM      7  O   UNL     1     -12.441  -3.000   0.000  0.00  0.00    -0.243 OA
BRANCH   4   5
ATOM      5  OXT UNL     1     -11.142  -0.750   0.000  0.00  0.00    -0.476 OA
ATOM      6  HXT UNL     1     -10.331  -0.281   0.000  0.00  0.00    +0.295 HD
ENDBRANCH   4   5
ENDBRANCH   3   4
BRANCH  12  13
ATOM     13  S   UNL     1      -5.946  -2.250   0.000  0.00  0.00    -0.088 S 
BRANCH  13  14
ATOM     14  C   UNL     1      -4.647  -3.000   0.000  0.00  0.00    +0.077 C 
BRANCH  14  15
ATOM     15  C   UNL     1      -3.348  -2.250   0.000  0.00  0.00    +0.011 C 
BRANCH  15  16
ATOM     16  C   UNL     1      -2.049  -3.000   0.000  0.00  0.00    -0.003 C 
ATOM     17  C   UNL     1      -0.750  -2.250   0.000  0.00  0.00    +0.004 C 
ENDBRANCH  15  16
ENDBRANCH  14  15
ENDBRANCH  13  14
ENDBRANCH  12  13
TORSDOF 6