REMARK  Name = 45527
REMARK  7 active torsions:
REMARK  status: ('A' for Active; 'I' for Inactive)
REMARK    1  A    between atoms: N_1  and  C_10
REMARK    2  A    between atoms: N_2  and  C_5
REMARK    3  A    between atoms: C_6  and  N_21
REMARK    4  A    between atoms: C_7  and  C_20
REMARK    5  A    between atoms: C_12  and  S_16
REMARK    6  A    between atoms: C_13  and  C_15
REMARK    7  A    between atoms: S_16  and  N_19
REMARK                            x       y       z     vdW  Elec       q    Type
REMARK                         _______ _______ _______ _____ _____    ______ ____
ROOT
ATOM     13  C   UNL     1       0.750  -4.299   0.000  0.00  0.00    +0.112 A 
ATOM     14  C   UNL     1      -0.549  -5.049   0.000  0.00  0.00    +0.132 A 
ATOM     21  C   UNL     1      -1.848  -4.299   0.000  0.00  0.00    +0.034 A 
ATOM     22  C   UNL     1      -1.848  -2.799   0.000  0.00  0.00    -0.048 A 
ATOM     23  C   UNL     1      -3.147  -2.049   0.000  0.00  0.00    +0.044 C 
ATOM     24  C   UNL     1      -0.549  -2.049   0.000  0.00  0.00    +0.005 A 
ATOM     25  C   UNL     1       0.750  -2.799   0.000  0.00  0.00    +0.032 A 
ENDROOT
BRANCH  14  15
ATOM     15  S   UNL     1      -0.549  -6.549   0.000  0.00  0.00    +0.058 S 
ATOM     19  O   UNL     1       0.951  -6.549   0.000  0.00  0.00    -0.153 OA
ATOM     20  O   UNL     1      -2.049  -6.549   0.000  0.00  0.00    -0.153 OA
BRANCH  15  16
ATOM     16  N   UNL     1      -0.549  -8.049   0.000  0.00  0.00    -0.203 NA
ATOM     17  H   UNL     1       0.334  -8.559   0.000  0.00  0.00    +0.144 HD
ATOM     18  H   UNL     1      -1.432  -8.559   0.000  0.00  0.00    +0.144 HD
ENDBRANCH  15  16
ENDBRANCH  14  15
BRANCH  13   1
ATOM      1  N   UNL     1       2.049  -5.049   0.000  0.00  0.00    -0.147 NA
ATOM      2  N   UNL     1       2.049  -6.549   0.000  0.00  0.00    -0.149 NA
BRANCH   2   3
ATOM      3  C   UNL     1       3.348  -7.299   0.000  0.00  0.00    +0.089 A 
ATOM      4  C   UNL     1       3.348  -8.799   0.000  0.00  0.00    -0.022 A 
ATOM      5  C   UNL     1       2.049  -9.549   0.000  0.00  0.00    +0.046 C 
ATOM      6  C   UNL     1       4.647  -9.549   0.000  0.00  0.00    +0.028 A 
ATOM      7  C   UNL     1       5.946  -8.799   0.000  0.00  0.00    +0.025 A 
ATOM     11  C   UNL     1       5.946  -7.299   0.000  0.00  0.00    +0.025 A 
ATOM     12  C   UNL     1       4.647  -6.549   0.000  0.00  0.00    +0.031 A 
BRANCH   7   8
ATOM      8  N   UNL     1       7.245  -9.549   0.000  0.00  0.00    -0.358 N 
ATOM      9  H   UNL     1       8.098  -9.057   0.000  0.00  0.00    +0.142 HD
ATOM     10  H   UNL     1       7.245 -10.533   0.000  0.00  0.00    +0.142 HD
ENDBRANCH   7   8
ENDBRANCH   2   3
ENDBRANCH  13   1
TORSDOF 5