REMARK  Name = 42231
REMARK  3 active torsions:
REMARK  status: ('A' for Active; 'I' for Inactive)
REMARK    1  A    between atoms: C_5  and  C_14
REMARK    2  A    between atoms: C_7  and  C_13
REMARK    3  A    between atoms: C_7  and  C_15
REMARK                            x       y       z     vdW  Elec       q    Type
REMARK                         _______ _______ _______ _____ _____    ______ ____
ROOT
ATOM      1  H   UNL     1       3.649   8.169   0.000  0.00  0.00    +0.124 HD
ATOM      2  N   UNL     1       2.899   6.870   0.000  0.00  0.00    -0.296 NA
ATOM      3  C   UNL     1       3.649   5.571   0.000  0.00  0.00    +0.071 C 
ATOM      4  C   UNL     1       4.531   4.357   0.000  0.00  0.00    +0.038 C 
ATOM      5  C   UNL     1       5.957   4.821   0.000  0.00  0.00    +0.003 C 
ATOM      6  C   UNL     1       5.957   6.321   0.000  0.00  0.00    +0.003 C 
ATOM      7  C   UNL     1       4.531   6.784   0.000  0.00  0.00    +0.038 C 
ATOM      8  N   UNL     1       2.899   4.272   0.000  0.00  0.00    -0.294 NA
ATOM      9  H   UNL     1       3.649   2.973   0.000  0.00  0.00    +0.124 HD
ATOM     10  C   UNL     1       1.399   4.272   0.000  0.00  0.00    +0.017 C 
ATOM     11  C   UNL     1       1.659   2.795   0.000  0.00  0.00    +0.027 C 
ATOM     12  C   UNL     1      -0.011   3.759   0.000  0.00  0.00    +0.027 C 
ATOM     13  C   UNL     1       0.649   5.571   0.000  0.00  0.00    +0.040 C 
ATOM     14  C   UNL     1       1.399   6.870   0.000  0.00  0.00    +0.054 C 
ATOM     15  C   UNL     1       0.649   8.169   0.000  0.00  0.00    +0.024 C 
ENDROOT
TORSDOF 0