REMARK  Name = 41649
REMARK  6 active torsions:
REMARK  status: ('A' for Active; 'I' for Inactive)
REMARK    1  A    between atoms: C_2  and  C_18
REMARK    2  A    between atoms: C_9  and  C_15
REMARK    3  A    between atoms: C_13  and  C_15
REMARK    4  A    between atoms: C_15  and  C_16
REMARK    5  A    between atoms: C_16  and  N_17
REMARK    6  A    between atoms: N_17  and  C_18
REMARK                            x       y       z     vdW  Elec       q    Type
REMARK                         _______ _______ _______ _____ _____    ______ ____
ROOT
ATOM      6  C   UNL     1      -4.272   5.899   0.000  0.00  0.00    +0.090 C 
ENDROOT
BRANCH   6   4
ATOM      4  N   UNL     1      -4.272   4.399   0.000  0.00  0.00    -0.311 NA
ATOM      5  H   UNL     1      -5.155   3.890   0.000  0.00  0.00    +0.122 HD
BRANCH   4   3
ATOM      3  C   UNL     1      -2.973   3.650   0.000  0.00  0.00    +0.116 C 
BRANCH   3   2
ATOM      1  C   UNL     1      -1.674   1.400   0.000  0.00  0.00    +0.005 A 
ATOM      2  C   UNL     1      -2.973   2.150   0.000  0.00  0.00    -0.034 A 
ATOM     16  C   UNL     1      -4.272   1.400   0.000  0.00  0.00    +0.005 A 
ATOM     17  C   UNL     1      -4.272  -0.101   0.000  0.00  0.00    +0.000 A 
ATOM     18  C   UNL     1      -2.973  -0.851   0.000  0.00  0.00    +0.000 A 
ATOM     19  C   UNL     1      -1.674  -0.101   0.000  0.00  0.00    +0.000 A 
ENDBRANCH   3   2
ENDBRANCH   4   3
ENDBRANCH   6   4
BRANCH   6   7
ATOM      7  C   UNL     1      -5.571   6.649   0.000  0.00  0.00    +0.047 C 
BRANCH   7  10
ATOM     10  C   UNL     1      -6.870   5.899   0.000  0.00  0.00    -0.042 A 
ATOM     11  C   UNL     1      -6.870   4.399   0.000  0.00  0.00    +0.004 A 
ATOM     12  C   UNL     1      -8.169   3.650   0.000  0.00  0.00    +0.000 A 
ATOM     13  C   UNL     1      -9.468   4.399   0.000  0.00  0.00    +0.000 A 
ATOM     14  C   UNL     1      -9.468   5.899   0.000  0.00  0.00    +0.000 A 
ATOM     15  C   UNL     1      -8.169   6.649   0.000  0.00  0.00    +0.004 A 
ENDBRANCH   7  10
BRANCH   7   8
ATOM      8  C   UNL     1      -5.571   8.149   0.000  0.00  0.00    +0.118 C 
ATOM      9 CL   UNL     1      -6.870   8.899   0.000  0.00  0.00    -0.125 Cl
ENDBRANCH   7   8
ENDBRANCH   6   7
TORSDOF 6