REMARK  Name = 44556
REMARK  3 active torsions:
REMARK  status: ('A' for Active; 'I' for Inactive)
REMARK    1  A    between atoms: C_8  and  C_17
REMARK    2  A    between atoms: C_14  and  S_18
REMARK    3  A    between atoms: C_17  and  S_18
REMARK                            x       y       z     vdW  Elec       q    Type
REMARK                         _______ _______ _______ _____ _____    ______ ____
ROOT
ATOM      6  C   UNL     1      -8.819  -0.275   0.000  0.00  0.00    +0.112 C 
ENDROOT
BRANCH   6   5
ATOM      1 CL   UNL     1     -14.015   2.725   0.000  0.00  0.00    -0.083 Cl
ATOM      2  C   UNL     1     -12.716   1.976   0.000  0.00  0.00    +0.042 A 
ATOM      3  C   UNL     1     -12.716   0.475   0.000  0.00  0.00    +0.040 A 
ATOM      4  C   UNL     1     -11.417  -0.275   0.000  0.00  0.00    +0.046 A 
ATOM      5  C   UNL     1     -10.118   0.475   0.000  0.00  0.00    -0.019 A 
ATOM     16  C   UNL     1     -10.118   1.976   0.000  0.00  0.00    +0.007 A 
ATOM     17 CL   UNL     1     -11.417  -1.775   0.000  0.00  0.00    -0.083 Cl
ATOM     18  C   UNL     1     -11.417   2.725   0.000  0.00  0.00    +0.020 A 
ENDBRANCH   6   5
BRANCH   6   7
ATOM      7  S   UNL     1      -7.520   0.475   0.000  0.00  0.00    -0.101 S 
BRANCH   7   8
ATOM      8  C   UNL     1      -6.221  -0.275   0.000  0.00  0.00    +0.104 A 
ATOM      9  C   UNL     1      -6.221  -1.775   0.000  0.00  0.00    +0.052 A 
ATOM     10  C   UNL     1      -4.922  -2.525   0.000  0.00  0.00    +0.090 A 
ATOM     11  N   UNL     1      -3.623  -1.775   0.000  0.00  0.00    -0.313 N 
ATOM     12  H   UNL     1      -2.324  -2.525   0.000  0.00  0.00    +0.170 HD
ATOM     13  C   UNL     1      -3.623  -0.275   0.000  0.00  0.00    +0.347 A 
ATOM     14  O   UNL     1      -2.324   0.475   0.000  0.00  0.00    -0.245 OA
ATOM     15  N   UNL     1      -4.922   0.475   0.000  0.00  0.00    -0.187 NA
ENDBRANCH   7   8
ENDBRANCH   6   7
TORSDOF 3