REMARK  Name = 43998
REMARK  4 active torsions:
REMARK  status: ('A' for Active; 'I' for Inactive)
REMARK    1  A    between atoms: C_3  and  C_9
REMARK    2  A    between atoms: C_3  and  C_12
REMARK    3  A    between atoms: C_19  and  N_21
REMARK    4  A    between atoms: N_24  and  N_25
REMARK                            x       y       z     vdW  Elec       q    Type
REMARK                         _______ _______ _______ _____ _____    ______ ____
ROOT
ATOM     12  N   UNL     1      -2.223  -6.649   0.000  0.00  0.00    -0.147 NA
ATOM     13  C   UNL     1      -0.924  -5.899   0.000  0.00  0.00    +0.100 C 
ENDROOT
BRANCH  12  11
ATOM      1  N   UNL     1      -4.821  -8.149   0.000  0.00  0.00    -0.339 N 
ATOM      2  H   UNL     1      -4.821  -6.649   0.000  0.00  0.00    +0.167 HD
ATOM      3  C   UNL     1      -6.120  -8.899   0.000  0.00  0.00    +0.169 A 
ATOM      4  C   UNL     1      -6.120 -10.400   0.000  0.00  0.00    +0.289 A 
ATOM      8  C   UNL     1      -4.821 -11.150   0.000  0.00  0.00    +0.089 A 
ATOM      9  C   UNL     1      -3.522 -10.400   0.000  0.00  0.00    +0.055 A 
ATOM     10  C   UNL     1      -3.522  -8.899   0.000  0.00  0.00    +0.153 A 
ATOM     11  N   UNL     1      -2.223  -8.149   0.000  0.00  0.00    -0.131 NA
BRANCH   4   5
ATOM      5  N   UNL     1      -7.419 -11.150   0.000  0.00  0.00    +0.081 N 
ATOM      6  O   UNL     1      -7.419 -12.650   0.000  0.00  0.00    +0.041 OA
ATOM      7  O   UNL     1      -8.718 -10.400   0.000  0.00  0.00    -0.576 OA
ENDBRANCH   4   5
ENDBRANCH  12  11
BRANCH  13  14
ATOM     14  C   UNL     1       0.375  -6.649   0.000  0.00  0.00    +0.003 A 
ATOM     15  C   UNL     1       0.375  -8.149   0.000  0.00  0.00    +0.010 A 
ATOM     16  C   UNL     1       1.674  -8.899   0.000  0.00  0.00    +0.001 A 
ATOM     17  C   UNL     1       2.973  -8.149   0.000  0.00  0.00    +0.000 A 
ATOM     18  C   UNL     1       2.973  -6.649   0.000  0.00  0.00    +0.001 A 
ATOM     19  C   UNL     1       1.674  -5.899   0.000  0.00  0.00    +0.010 A 
ENDBRANCH  13  14
BRANCH  13  20
ATOM     20  C   UNL     1      -0.924  -4.399   0.000  0.00  0.00    +0.003 A 
ATOM     21  C   UNL     1      -2.223  -3.650   0.000  0.00  0.00    +0.010 A 
ATOM     22  C   UNL     1      -2.223  -2.150   0.000  0.00  0.00    +0.001 A 
ATOM     23  C   UNL     1      -0.924  -1.400   0.000  0.00  0.00    +0.000 A 
ATOM     24  C   UNL     1       0.375  -2.150   0.000  0.00  0.00    +0.001 A 
ATOM     25  C   UNL     1       0.375  -3.650   0.000  0.00  0.00    +0.010 A 
ENDBRANCH  13  20
TORSDOF 4