REMARK  Name = 43088
REMARK  5 active torsions:
REMARK  status: ('A' for Active; 'I' for Inactive)
REMARK    1  A    between atoms: S_1  and  C_4
REMARK    2  A    between atoms: S_1  and  C_9
REMARK    3  A    between atoms: C_5  and  N_22
REMARK    4  A    between atoms: C_12  and  C_20
REMARK    5  A    between atoms: C_15  and  C_20
REMARK                            x       y       z     vdW  Elec       q    Type
REMARK                         _______ _______ _______ _____ _____    ______ ____
ROOT
ATOM      2  C   UNL     1       2.973   8.149   0.000  0.00  0.00    +0.013 A 
ATOM      3  C   UNL     1       2.973   6.649   0.000  0.00  0.00    +0.016 A 
ATOM      4  C   UNL     1       1.674   5.899   0.000  0.00  0.00    +0.013 A 
ATOM      5  C   UNL     1       0.375   6.649   0.000  0.00  0.00    +0.022 A 
ATOM     14  C   UNL     1       0.375   8.149   0.000  0.00  0.00    +0.013 A 
ATOM     15  C   UNL     1       1.674   8.899   0.000  0.00  0.00    +0.016 A 
ENDROOT
BRANCH   5   6
ATOM      6  C   UNL     1      -0.924   5.899   0.000  0.00  0.00    +0.193 C 
ATOM      7  O   UNL     1      -2.223   6.649   0.000  0.00  0.00    -0.287 OA
BRANCH   6   8
ATOM      8  C   UNL     1      -0.924   4.399   0.000  0.00  0.00    +0.022 A 
ATOM      9  C   UNL     1       0.375   3.650   0.000  0.00  0.00    +0.012 A 
ATOM     10  C   UNL     1       0.375   2.150   0.000  0.00  0.00    +0.001 A 
ATOM     11  C   UNL     1      -0.924   1.400   0.000  0.00  0.00    +0.000 A 
ATOM     12  C   UNL     1      -2.223   2.150   0.000  0.00  0.00    +0.001 A 
ATOM     13  C   UNL     1      -2.223   3.650   0.000  0.00  0.00    +0.012 A 
ENDBRANCH   6   8
ENDBRANCH   5   6
BRANCH   2   1
ATOM      1  S   UNL     1       4.272   8.899   0.000  0.00  0.00    -0.089 S 
BRANCH   1  16
ATOM     16  C   UNL     1       4.272  10.400   0.000  0.00  0.00    +0.013 A 
ATOM     17  C   UNL     1       5.571  11.150   0.000  0.00  0.00    +0.021 A 
ATOM     18  C   UNL     1       5.571  12.650   0.000  0.00  0.00    +0.085 A 
ATOM     19  C   UNL     1       4.272  13.400   0.000  0.00  0.00    +0.273 A 
ATOM     23  C   UNL     1       2.973  12.650   0.000  0.00  0.00    +0.085 A 
ATOM     24  C   UNL     1       2.973  11.150   0.000  0.00  0.00    +0.021 A 
BRANCH  19  20
ATOM     20  N   UNL     1       4.272  14.900   0.000  0.00  0.00    +0.080 N 
ATOM     21  O   UNL     1       5.571  15.650   0.000  0.00  0.00    +0.041 OA
ATOM     22  O   UNL     1       2.973  15.650   0.000  0.00  0.00    -0.576 OA
ENDBRANCH  19  20
ENDBRANCH   1  16
ENDBRANCH   2   1
TORSDOF 5