REMARK  Name = 45641
REMARK  3 active torsions:
REMARK  status: ('A' for Active; 'I' for Inactive)
REMARK    1  A    between atoms: C_12  and  C_13
REMARK    2  A    between atoms: C_12  and  C_14
REMARK    3  A    between atoms: N_15  and  N_16
REMARK                            x       y       z     vdW  Elec       q    Type
REMARK                         _______ _______ _______ _____ _____    ______ ____
ROOT
ATOM      1  N   UNL     1      -7.158   1.234   0.000  0.00  0.00    -0.215 NA
ATOM      2  C   UNL     1      -5.859   1.984   0.000  0.00  0.00    +0.203 A 
ATOM      3  N   UNL     1      -5.859   3.483   0.000  0.00  0.00    -0.128 NA
ATOM      8  C   UNL     1      -4.560   1.234   0.000  0.00  0.00    +0.130 A 
ATOM      9  C   UNL     1      -4.560  -0.267   0.000  0.00  0.00    +0.161 A 
ATOM     10  N   UNL     1      -3.133  -0.730   0.000  0.00  0.00    -0.218 NA
ATOM     11  C   UNL     1      -2.251   0.483   0.000  0.00  0.00    +0.199 A 
ATOM     12  N   UNL     1      -5.859  -1.017   0.000  0.00  0.00    -0.329 N 
ATOM     13  H   UNL     1      -5.859  -2.517   0.000  0.00  0.00    +0.168 HD
ATOM     14  N   UNL     1      -3.133   1.697   0.000  0.00  0.00    -0.340 N 
ATOM     15  H   UNL     1      -2.670   3.124   0.000  0.00  0.00    +0.167 HD
ATOM     16  C   UNL     1      -7.158  -0.267   0.000  0.00  0.00    +0.200 A 
ENDROOT
BRANCH   3   4
ATOM      4  N   UNL     1      -7.158   4.234   0.000  0.00  0.00    -0.157 NA
ATOM      5  C   UNL     1      -7.158   5.734   0.000  0.00  0.00    +0.035 C 
ATOM      6  C   UNL     1      -8.457   6.484   0.000  0.00  0.00    +0.062 C 
ATOM      7  C   UNL     1      -5.859   6.484   0.000  0.00  0.00    +0.062 C 
ENDBRANCH   3   4
TORSDOF 1