REMARK  Name = 43512
REMARK  2 active torsions:
REMARK  status: ('A' for Active; 'I' for Inactive)
REMARK    1  A    between atoms: N_3  and  C_16
REMARK    2  A    between atoms: C_10  and  C_12
REMARK                            x       y       z     vdW  Elec       q    Type
REMARK                         _______ _______ _______ _____ _____    ______ ____
ROOT
ATOM      1  H   UNL     1      -5.203   7.512   0.000  0.00  0.00    +0.165 HD
ATOM      2  N   UNL     1      -5.667   6.085   0.000  0.00  0.00    -0.360 N 
ATOM      3  C   UNL     1      -4.785   4.872   0.000  0.00  0.00    +0.087 A 
ATOM      4  C   UNL     1      -5.667   3.658   0.000  0.00  0.00    -0.018 A 
ATOM     11  C   UNL     1      -7.093   4.122   0.000  0.00  0.00    +0.003 A 
ATOM     12  C   UNL     1      -8.392   3.372   0.000  0.00  0.00    +0.010 A 
ATOM     13  C   UNL     1      -9.691   4.122   0.000  0.00  0.00    +0.001 A 
ATOM     14  C   UNL     1      -9.691   5.622   0.000  0.00  0.00    +0.002 A 
ATOM     15  C   UNL     1      -8.392   6.372   0.000  0.00  0.00    +0.026 A 
ATOM     16  C   UNL     1      -7.093   5.622   0.000  0.00  0.00    +0.047 A 
ENDROOT
BRANCH   4   5
ATOM      5  C   UNL     1      -5.203   2.232   0.000  0.00  0.00    +0.036 C 
ATOM      6  C   UNL     1      -6.085   1.018   0.000  0.00  0.00    +0.025 C 
ATOM      7  C   UNL     1      -5.203  -0.196   0.000  0.00  0.00    +0.085 C 
ATOM      8  N   UNL     1      -3.776   0.268   0.000  0.00  0.00    -0.305 NA
ATOM      9  C   UNL     1      -2.563  -0.614   0.000  0.00  0.00    +0.104 C 
ATOM     10  C   UNL     1      -3.776   1.768   0.000  0.00  0.00    +0.092 C 
ENDBRANCH   4   5
TORSDOF 1