REMARK  13 active torsions:
REMARK  status: ('A' for Active; 'I' for Inactive)
REMARK    1  A    between atoms: C14_3862  and  C15_3864 
REMARK    2  A    between atoms: C10_3868  and  C11_3872 
REMARK    3  A    between atoms: C10_3868  and  O1_3886 
REMARK    4  A    between atoms: C9_3869  and  O1_3886 
REMARK       I    between atoms: N1_3870  and  C31_3903 
REMARK    5  A    between atoms: C1_3874  and  C_3883 
REMARK    6  A    between atoms: C5_3878  and  C6_3879 
REMARK    7  A    between atoms: C6_3879  and  O_3884 
REMARK    8  A    between atoms: C7_3880  and  O_3884 
REMARK    9  A    between atoms: C28_3900  and  C29_3901 
REMARK   10  A    between atoms: C29_3901  and  C30_3902 
REMARK   11  A    between atoms: C31_3903  and  C32_3904 
REMARK   12  A    between atoms: C32_3904  and  C33_3905 
REMARK   13  A    between atoms: C33_3905  and  C34_3906 
ROOT
HETATM    1  C14 8YQ A 201      -8.945  10.598 -22.013  1.00 30.90    -0.004 A 
HETATM    2  C13 8YQ A 201      -8.358  12.043 -23.888  1.00 38.15     0.031 C 
HETATM    3  C12 8YQ A 201      -7.936  11.181 -22.727  1.00 32.62    -0.023 A 
HETATM    4  C11 8YQ A 201      -6.600  10.996 -22.376  1.00 30.49     0.004 A 
HETATM    5  C23 8YQ A 201      -8.640   9.839 -20.924  1.00 29.44    -0.000 A 
HETATM    6  C24 8YQ A 201      -7.332   9.613 -20.576  1.00 33.56    -0.000 A 
HETATM    7  C25 8YQ A 201      -6.299  10.215 -21.301  1.00 30.25    -0.002 A 
ENDROOT
BRANCH   1   8
HETATM    8  C15 8YQ A 201     -10.446  10.790 -22.328  1.00 33.40     0.002 A 
HETATM    9  C22 8YQ A 201     -11.037  10.323 -23.503  1.00 31.53     0.002 A 
HETATM   10  C21 8YQ A 201     -12.398  10.555 -23.711  1.00 34.56     0.027 A 
HETATM   11  C18 8YQ A 201     -13.141  11.210 -22.732  1.00 38.73     0.123 A 
HETATM   12  C17 8YQ A 201     -12.565  11.650 -21.573  1.00 42.18     0.123 A 
HETATM   13  O2  8YQ A 201     -14.501  11.428 -22.852  1.00 50.59    -0.301 OA
HETATM   14  C16 8YQ A 201     -11.189  11.466 -21.369  1.00 37.89     0.027 A 
HETATM   15  O3  8YQ A 201     -13.334  12.283 -20.622  1.00 50.81    -0.301 OA
HETATM   16  C20 8YQ A 201     -14.673  12.542 -20.775  1.00 42.48     0.149 A 
HETATM   17  C19 8YQ A 201     -15.254  12.074 -21.900  1.00 40.44     0.149 A 
ENDBRANCH   1   8
BRANCH   4  18
HETATM   18  C10 8YQ A 201      -5.386  11.587 -23.142  1.00 35.84     0.175 C 
BRANCH  18  19
HETATM   19  O1  8YQ A 201      -4.305  10.690 -22.715  1.00 36.76    -0.325 OA
BRANCH  19  20
HETATM   20  C9  8YQ A 201      -3.066  10.820 -23.350  1.00 52.29     0.107 A 
HETATM   21  C26 8YQ A 201      -2.089   9.792 -23.368  1.00 55.51     0.080 A 
HETATM   22 CL   8YQ A 201      -2.365   8.161 -22.537  1.00 55.51    -0.080 Cl
HETATM   23  C27 8YQ A 201      -0.870  10.052 -24.045  1.00 54.18     0.012 A 
HETATM   24  C28 8YQ A 201      -0.641  11.294 -24.708  1.00 57.26     0.007 A 
HETATM   25  C7  8YQ A 201      -1.623  12.297 -24.656  1.00 52.45     0.093 A 
HETATM   26  C8  8YQ A 201      -2.818  12.053 -23.985  1.00 56.59     0.049 A 
BRANCH  24  27
HETATM   27  C29 8YQ A 201       0.707  11.622 -25.430  1.00 59.00     0.075 C 
BRANCH  27  28
HETATM   28  C30 8YQ A 201       1.067  10.961 -26.761  1.00 66.42     0.074 C 
HETATM   29  N1  8YQ A 201       0.665   9.691 -26.767  1.00 71.49    -0.244 NA
HETATM   30  C31 8YQ A 201       0.372   9.429 -28.292  1.00 72.99     0.255 C 
HETATM   31  O4  8YQ A 201       1.514   9.210 -28.878  1.00 73.07    -0.196 OA
BRANCH  30  32
HETATM   32  C32 8YQ A 201      -0.319  10.790 -28.729  1.00 69.96     0.070 C 
BRANCH  32  33
HETATM   33  C33 8YQ A 201       0.532  11.682 -28.214  1.00 77.11     0.102 C 
BRANCH  33  34
HETATM   34  C34 8YQ A 201       0.010  13.174 -28.152  1.00 80.38     0.185 C 
HETATM   35  O5  8YQ A 201       0.862  14.067 -27.897  1.00 74.69    -0.647 OA
HETATM   36  O6  8YQ A 201      -1.171  13.517 -28.363  1.00 80.71    -0.647 OA
ENDBRANCH  33  34
ENDBRANCH  32  33
ENDBRANCH  30  32
ENDBRANCH  27  28
ENDBRANCH  24  27
BRANCH  25  37
HETATM   37  O   8YQ A 201      -1.418  13.597 -25.308  1.00 45.62    -0.326 OA
BRANCH  37  38
HETATM   38  C6  8YQ A 201      -2.321  14.616 -25.248  1.00 43.46     0.175 C 
BRANCH  38  39
HETATM   39  C5  8YQ A 201      -1.678  15.814 -25.887  1.00 44.47     0.008 A 
HETATM   40  C35 8YQ A 201      -2.497  16.698 -26.633  1.00 43.34    -0.001 A 
HETATM   41  C1  8YQ A 201      -1.999  17.841 -27.282  1.00 41.72     0.014 A 
HETATM   42  C2  8YQ A 201      -0.608  18.077 -27.104  1.00 48.21     0.001 A 
HETATM   43  C3  8YQ A 201       0.234  17.189 -26.378  1.00 46.96    -0.000 A 
HETATM   44  C4  8YQ A 201      -0.283  16.047 -25.748  1.00 45.58    -0.002 A 
BRANCH  41  45
HETATM   45  C   8YQ A 201      -2.969  18.874 -28.065  1.00 44.88     0.083 C 
HETATM   46  N   8YQ A 201      -2.926  19.117 -29.561  1.00 38.48    -0.099 NA
ENDBRANCH  41  45
ENDBRANCH  38  39
ENDBRANCH  37  38
ENDBRANCH  25  37
ENDBRANCH  19  20
ENDBRANCH  18  19
ENDBRANCH   4  18
TORSDOF 13
