REMARK  10 active torsions:
REMARK  status: ('A' for Active; 'I' for Inactive)
REMARK    1  A    between atoms: C21_2006  and  C22_2007 
REMARK    2  A    between atoms: C22_2007  and  N_2008 
REMARK    3  A    between atoms: N_2008  and  C23_2009 
REMARK    4  A    between atoms: C23_2009  and  C24_2010 
REMARK    5  A    between atoms: C24_2010  and  C25_2012 
REMARK    6  A    between atoms: C25_2012  and  C26_2013 
REMARK    7  A    between atoms: C2_2016  and  O_2020 
REMARK    8  A    between atoms: O_2020  and  C3_2021 
REMARK    9  A    between atoms: C3_2021  and  C4_2022 
REMARK   10  A    between atoms: C7_2025  and  C8_2029 
ROOT
HETATM    1  F1  8HW B 201      35.293  10.989 136.832  1.00 59.75    -0.202 F 
HETATM    2  C19 8HW B 201      34.574  10.071 136.129  1.00 57.59     0.162 A 
HETATM    3  C20 8HW B 201      34.493   8.758 136.556  1.00 56.64     0.032 A 
HETATM    4  C21 8HW B 201      33.740   7.852 135.819  1.00 56.19     0.043 A 
HETATM    5  C2  8HW B 201      33.927  10.476 134.977  1.00 42.94     0.124 A 
HETATM    6  C1  8HW B 201      33.182   9.577 134.234  1.00 44.10     0.056 A 
HETATM    7  C   8HW B 201      33.094   8.263 134.663  1.00 49.09     0.140 A 
HETATM    8  F   8HW B 201      32.372   7.354 133.951  1.00 43.59    -0.204 F 
ENDROOT
BRANCH   5   9
HETATM    9  O   8HW B 201      34.060  11.807 134.585  1.00 25.82    -0.324 OA
BRANCH   9  10
HETATM   10  C3  8HW B 201      33.167  12.206 133.585  1.00 28.40     0.175 C 
BRANCH  10  11
HETATM   11  C4  8HW B 201      33.555  13.645 133.305  1.00 24.41     0.004 A 
HETATM   12  C18 8HW B 201      34.720  14.156 133.832  1.00 25.47    -0.002 A 
HETATM   13  C17 8HW B 201      35.053  15.474 133.572  1.00 26.79    -0.000 A 
HETATM   14  C16 8HW B 201      34.211  16.255 132.795  1.00 23.73    -0.000 A 
HETATM   15  C7  8HW B 201      33.038  15.737 132.272  1.00 21.22    -0.004 A 
HETATM   16  C5  8HW B 201      32.708  14.424 132.532  1.00 29.68    -0.023 A 
HETATM   17  C6  8HW B 201      31.448  13.787 131.986  1.00 28.45     0.031 C 
BRANCH  15  18
HETATM   18  C8  8HW B 201      32.160  16.668 131.425  1.00 29.73     0.002 A 
HETATM   19  C9  8HW B 201      32.723  17.170 130.263  1.00 29.15     0.026 A 
HETATM   20  C10 8HW B 201      31.976  18.043 129.455  1.00 27.65     0.116 A 
HETATM   21  O2  8HW B 201      32.587  18.532 128.280  1.00 29.90    -0.326 OA
HETATM   22  C11 8HW B 201      30.712  18.401 129.828  1.00 28.70     0.116 A 
HETATM   23  C13 8HW B 201      31.722  19.077 127.344  1.00 32.32     0.181 C 
HETATM   24  C12 8HW B 201      30.727  19.992 128.033  1.00 25.39     0.181 C 
HETATM   25  O1  8HW B 201      29.960  19.302 129.016  1.00 36.20    -0.326 OA
HETATM   26  C14 8HW B 201      30.111  17.909 131.010  1.00 26.61     0.026 A 
HETATM   27  C15 8HW B 201      30.868  17.046 131.815  1.00 27.98     0.002 A 
ENDBRANCH  15  18
ENDBRANCH  10  11
ENDBRANCH   9  10
ENDBRANCH   5   9
BRANCH   4  28
HETATM   28  C22 8HW B 201      33.629   6.389 136.254  1.00 56.20     0.320 C 
BRANCH  28  29
HETATM   29  N   8HW B 201      32.327   6.072 136.803  1.00 56.95     0.352 N 
BRANCH  29  30
HETATM   30  C23 8HW B 201      32.031   6.999 137.872  1.00 61.66     0.355 C 
BRANCH  30  31
HETATM   31  C24 8HW B 201      32.517   6.420 139.197  1.00 68.49     0.198 C 
HETATM   32  O3  8HW B 201      33.658   6.148 139.372  1.00 57.06    -0.293 OA
BRANCH  31  33
HETATM   33  C25 8HW B 201      31.478   6.193 140.288  1.00 75.86     0.164 C 
BRANCH  33  34
HETATM   34  C26 8HW B 201      30.079   6.402 139.708  1.00 79.51     0.193 C 
HETATM   35  O4  8HW B 201      29.489   5.450 139.126  1.00 71.58    -0.647 OA
HETATM   36  O5  8HW B 201      29.526   7.530 139.805  1.00 81.63    -0.647 OA
ENDBRANCH  33  34
ENDBRANCH  31  33
ENDBRANCH  30  31
ENDBRANCH  29  30
ENDBRANCH  28  29
ENDBRANCH   4  28
TORSDOF 10
