REMARK  7 active torsions:
REMARK  status: ('A' for Active; 'I' for Inactive)
REMARK    1  A    between atoms: C7_1912  and  C8_1913 
REMARK    2  A    between atoms: C8_1913  and  N_1914 
REMARK    3  A    between atoms: C13_1915  and  C14_1916 
REMARK    4  A    between atoms: C4_1925  and  O_1926 
REMARK    5  A    between atoms: O_1926  and  C3_1927 
REMARK    6  A    between atoms: C3_1927  and  C2_1928 
REMARK    7  A    between atoms: C20_1932  and  C21_1935 
ROOT
HETATM    1 BR   6GZ A 201       3.159  36.901  24.947  1.00 53.74    -0.047 Br
HETATM    2  C16 6GZ A 201       3.015  37.315  23.102  1.00 43.61     0.057 A 
HETATM    3  C15 6GZ A 201       1.844  37.701  22.458  1.00 45.73     0.006 A 
HETATM    4  C7  6GZ A 201       1.861  37.963  21.077  1.00 45.29     0.012 A 
HETATM    5  C6  6GZ A 201       3.024  37.845  20.336  1.00 43.61    -0.000 A 
HETATM    6  C5  6GZ A 201       4.211  37.460  20.932  1.00 42.43     0.024 A 
HETATM    7  C4  6GZ A 201       4.241  37.182  22.306  1.00 43.08     0.101 A 
ENDROOT
BRANCH   7   8
HETATM    8  O   6GZ A 201       5.364  36.820  22.980  1.00 38.26    -0.326 OA
BRANCH   8   9
HETATM    9  C3  6GZ A 201       6.612  37.275  22.481  1.00 34.70     0.175 C 
BRANCH   9  10
HETATM   10  C2  6GZ A 201       7.780  37.001  23.358  1.00 31.42     0.004 A 
HETATM   11  C17 6GZ A 201       7.702  36.232  24.512  1.00 32.37    -0.002 A 
HETATM   12  C18 6GZ A 201       8.851  36.017  25.280  1.00 30.83    -0.000 A 
HETATM   13  C19 6GZ A 201      10.084  36.555  24.918  1.00 30.33    -0.000 A 
HETATM   14  C20 6GZ A 201      10.254  37.314  23.785  1.00 29.20    -0.004 A 
HETATM   15  C1  6GZ A 201       9.075  37.568  22.949  1.00 31.39    -0.023 A 
HETATM   16  C   6GZ A 201       9.230  38.377  21.708  1.00 32.83     0.031 C 
BRANCH  14  17
HETATM   17  C21 6GZ A 201      11.585  37.857  23.428  1.00 27.70    -0.000 A 
HETATM   18  C26 6GZ A 201      12.652  37.015  23.189  1.00 27.98     0.000 A 
HETATM   19  C25 6GZ A 201      13.898  37.549  22.861  1.00 27.32     0.000 A 
HETATM   20  C24 6GZ A 201      14.074  38.902  22.782  1.00 27.16     0.000 A 
HETATM   21  C23 6GZ A 201      12.999  39.753  22.991  1.00 27.05     0.000 A 
HETATM   22  C22 6GZ A 201      11.760  39.221  23.315  1.00 29.17     0.000 A 
ENDBRANCH  14  17
ENDBRANCH   9  10
ENDBRANCH   8   9
ENDBRANCH   7   8
BRANCH   4  23
HETATM   23  C8  6GZ A 201       0.613  38.412  20.377  1.00 47.32     0.277 C 
BRANCH  23  24
HETATM   24  N   6GZ A 201      -0.350  37.302  20.173  1.00 55.88     0.150 N 
HETATM   25  C13 6GZ A 201      -1.777  37.732  20.418  1.00 59.27     0.305 C 
HETATM   26  C12 6GZ A 201      -2.752  36.682  19.882  1.00 61.05     0.045 C 
HETATM   27  C11 6GZ A 201      -2.439  36.178  18.477  1.00 62.61     0.005 C 
HETATM   28  C10 6GZ A 201      -1.062  35.537  18.504  1.00 59.58     0.035 C 
HETATM   29  C9  6GZ A 201      -0.030  36.588  18.900  1.00 58.08     0.251 C 
BRANCH  25  30
HETATM   30  C14 6GZ A 201      -2.190  39.135  19.963  1.00 63.95     0.218 C 
HETATM   31  O1  6GZ A 201      -2.915  39.918  20.787  1.00 54.28    -0.646 OA
HETATM   32  O2  6GZ A 201      -1.871  39.597  18.866  1.00 71.48    -0.646 OA
ENDBRANCH  25  30
ENDBRANCH  23  24
ENDBRANCH   4  23
TORSDOF 7
