REMARK  Name = 175274
REMARK  3 active torsions:
REMARK  status: ('A' for Active; 'I' for Inactive)
REMARK    1  A    between atoms: N_4  and  N_19
REMARK    2  A    between atoms: C_14  and  C_20
REMARK    3  A    between atoms: C_20  and  C_21
REMARK                            x       y       z     vdW  Elec       q    Type
REMARK                         _______ _______ _______ _____ _____    ______ ____
ROOT
ATOM      1  H   UNL     1      -7.414   0.510   0.000  0.00  0.00    +0.155 HD
ATOM      2  N   UNL     1      -7.414  -0.990   0.000  0.00  0.00    -0.281 N 
ATOM      3  C   UNL     1      -6.200  -1.871   0.000  0.00  0.00    +0.249 C 
ATOM      4  C   UNL     1      -6.664  -3.298   0.000  0.00  0.00    +0.048 C 
ATOM      5  C   UNL     1      -5.782  -4.512   0.000  0.00  0.00    +0.043 C 
ATOM     17  C   UNL     1      -8.164  -3.298   0.000  0.00  0.00    +0.008 A 
ATOM     18  C   UNL     1      -9.168  -4.413   0.000  0.00  0.00    +0.010 A 
ATOM     19  C   UNL     1     -10.635  -4.101   0.000  0.00  0.00    +0.001 A 
ATOM     20  C   UNL     1     -11.098  -2.674   0.000  0.00  0.00    +0.002 A 
ATOM     21  C   UNL     1     -10.095  -1.560   0.000  0.00  0.00    +0.024 A 
ATOM     22  O   UNL     1      -4.774  -1.408   0.000  0.00  0.00    -0.270 OA
ATOM     23  C   UNL     1      -8.627  -1.871   0.000  0.00  0.00    +0.042 A 
ENDROOT
BRANCH   5   6
ATOM      6  C   UNL     1      -4.290  -4.355   0.000  0.00  0.00    +0.089 C 
ATOM     13  N   UNL     1      -3.680  -2.985   0.000  0.00  0.00    -0.189 NA
BRANCH   6   7
ATOM      7  C   UNL     1      -3.409  -5.568   0.000  0.00  0.00    +0.002 A 
ATOM      8  C   UNL     1      -1.917  -5.412   0.000  0.00  0.00    +0.010 A 
ATOM      9  C   UNL     1      -1.035  -6.625   0.000  0.00  0.00    +0.001 A 
ATOM     10  C   UNL     1      -1.645  -7.995   0.000  0.00  0.00    +0.000 A 
ATOM     11  C   UNL     1      -3.137  -8.152   0.000  0.00  0.00    +0.001 A 
ATOM     12  C   UNL     1      -4.019  -6.939   0.000  0.00  0.00    +0.010 A 
ENDBRANCH   6   7
BRANCH  13  14
ATOM     14  N   UNL     1      -2.189  -2.828   0.000  0.00  0.00    -0.282 N 
ATOM     15  H   UNL     1      -1.788  -1.928   0.000  0.00  0.00    +0.164 HD
ATOM     16  H   UNL     1      -1.610  -3.624   0.000  0.00  0.00    +0.164 HD
ENDBRANCH  13  14
ENDBRANCH   5   6
TORSDOF 3