REMARK  Name = 165897
REMARK  6 active torsions:
REMARK  status: ('A' for Active; 'I' for Inactive)
REMARK    1  A    between atoms: C_6  and  O_11
REMARK    2  A    between atoms: C_8  and  C_18
REMARK    3  A    between atoms: O_11  and  C_12
REMARK    4  A    between atoms: C_13  and  S_15
REMARK    5  A    between atoms: S_15  and  C_16
REMARK    6  A    between atoms: C_16  and  C_17
REMARK                            x       y       z     vdW  Elec       q    Type
REMARK                         _______ _______ _______ _____ _____    ______ ____
ROOT
ATOM      1  N   UNL     1       4.821   6.649   0.000  0.00  0.00    -0.242 N 
ATOM      2  C   UNL     1       4.821   8.149   0.000  0.00  0.00    +0.280 C 
ATOM      6  O   UNL     1       3.522   8.899   0.000  0.00  0.00    -0.262 OA
ATOM      7  C   UNL     1       6.120   5.899   0.000  0.00  0.00    +0.208 C 
ATOM     10  C   UNL     1       6.120   4.399   0.000  0.00  0.00    +0.011 C 
ATOM     11  C   UNL     1       4.821   3.650   0.000  0.00  0.00    +0.008 C 
ATOM     12  C   UNL     1       3.522   4.399   0.000  0.00  0.00    -0.000 A 
ATOM     13  C   UNL     1       2.223   3.650   0.000  0.00  0.00    +0.055 A 
ATOM     14  C   UNL     1       0.924   4.399   0.000  0.00  0.00    +0.121 A 
ATOM     17  C   UNL     1       0.924   5.899   0.000  0.00  0.00    +0.047 A 
ATOM     18  C   UNL     1       2.223   6.649   0.000  0.00  0.00    +0.028 A 
ATOM     19  C   UNL     1       3.522   5.899   0.000  0.00  0.00    +0.046 A 
ENDROOT
BRANCH   7   8
ATOM      8  C   UNL     1       7.419   6.649   0.000  0.00  0.00    +0.090 C 
ATOM      9  N   UNL     1       8.718   7.399   0.000  0.00  0.00    -0.194 NA
ENDBRANCH   7   8
BRANCH  14  15
ATOM     15  O   UNL     1      -0.375   3.650   0.000  0.00  0.00    -0.495 OA
ATOM     16  C   UNL     1      -1.674   4.399   0.000  0.00  0.00    +0.277 C 
ENDBRANCH  14  15
BRANCH   2   3
ATOM      3  S   UNL     1       6.120   8.899   0.000  0.00  0.00    -0.067 S 
BRANCH   3   4
ATOM      4  C   UNL     1       6.120  10.400   0.000  0.00  0.00    +0.075 C 
ATOM      5  C   UNL     1       7.419  11.150   0.000  0.00  0.00    +0.016 C 
ENDBRANCH   3   4
ENDBRANCH   2   3
TORSDOF 4