REMARK  Name = 168415
REMARK  5 active torsions:
REMARK  status: ('A' for Active; 'I' for Inactive)
REMARK    1  A    between atoms: C_3  and  C_14
REMARK    2  A    between atoms: C_3  and  C_18
REMARK    3  A    between atoms: C_5  and  C_11
REMARK    4  A    between atoms: C_8  and  C_12
REMARK    5  A    between atoms: C_10  and  C_13
REMARK                            x       y       z     vdW  Elec       q    Type
REMARK                         _______ _______ _______ _____ _____    ______ ____
ROOT
ATOM      1  O   UNL     1       1.037  -6.882   0.000  0.00  0.00    -0.436 OA
ATOM      2  C   UNL     1       2.250  -6.000   0.000  0.00  0.00    +0.222 A 
ATOM     13  N   UNL     1       3.463  -6.882   0.000  0.00  0.00    -0.209 NA
ATOM     14  C   UNL     1       3.000  -8.308   0.000  0.00  0.00    +0.110 A 
ATOM     15  C   UNL     1       3.750  -9.607   0.000  0.00  0.00    +0.035 A 
ATOM     16  C   UNL     1       3.000 -10.906   0.000  0.00  0.00    -0.045 A 
ATOM     17  C   UNL     1       3.750 -12.205   0.000  0.00  0.00    +0.044 C 
ATOM     18  C   UNL     1       1.500 -10.906   0.000  0.00  0.00    -0.044 A 
ATOM     19  C   UNL     1       0.750 -12.205   0.000  0.00  0.00    +0.044 C 
ATOM     20  C   UNL     1       0.750  -9.607   0.000  0.00  0.00    +0.052 A 
ATOM     21  C   UNL     1       1.500  -8.308   0.000  0.00  0.00    +0.156 A 
ENDROOT
BRANCH   2   3
ATOM      3  C   UNL     1       2.250  -4.500   0.000  0.00  0.00    +0.084 C 
ATOM      4  C   UNL     1       3.549  -3.750   0.000  0.00  0.00    +0.139 C 
BRANCH   4   5
ATOM      5  C   UNL     1       4.848  -4.500   0.000  0.00  0.00    +0.422 C 
ATOM      6  F   UNL     1       6.147  -5.250   0.000  0.00  0.00    -0.166 F 
ATOM      7  F   UNL     1       5.598  -3.201   0.000  0.00  0.00    -0.166 F 
ATOM      8  F   UNL     1       4.098  -5.799   0.000  0.00  0.00    -0.166 F 
ENDBRANCH   4   5
BRANCH   4   9
ATOM      9  C   UNL     1       3.549  -2.250   0.000  0.00  0.00    +0.422 C 
ATOM     10  F   UNL     1       5.049  -2.250   0.000  0.00  0.00    -0.166 F 
ATOM     11  F   UNL     1       3.549  -0.750   0.000  0.00  0.00    -0.166 F 
ATOM     12  F   UNL     1       2.049  -2.250   0.000  0.00  0.00    -0.166 F 
ENDBRANCH   4   9
ENDBRANCH   2   3
TORSDOF 3