REMARK  Name = 174163
REMARK  1 active torsions:
REMARK  status: ('A' for Active; 'I' for Inactive)
REMARK    1  A    between atoms: HG_1  and  C_4
REMARK                            x       y       z     vdW  Elec       q    Type
REMARK                         _______ _______ _______ _____ _____    ______ ____
ROOT
ATOM      2  C   UNL     1      -3.348  -1.500   0.000  0.00  0.00    +0.000 A 
ATOM      3  C   UNL     1      -3.348  -3.000   0.000  0.00  0.00    +0.000 A 
ATOM      4  C   UNL     1      -4.647  -3.750   0.000  0.00  0.00    +0.000 A 
ATOM      5  C   UNL     1      -5.946  -3.000   0.000  0.00  0.00    +0.000 A 
ATOM      6  C   UNL     1      -7.245  -3.750   0.000  0.00  0.00    +0.000 A 
ATOM      7  C   UNL     1      -8.544  -3.000   0.000  0.00  0.00    +0.000 A 
ATOM      8  C   UNL     1      -8.544  -1.500   0.000  0.00  0.00    +0.000 A 
ATOM      9  C   UNL     1      -7.245  -0.750   0.000  0.00  0.00    +0.000 A 
ATOM     10  C   UNL     1      -5.946  -1.500   0.000  0.00  0.00    +0.000 A 
ATOM     11  C   UNL     1      -4.647  -0.750   0.000  0.00  0.00    +0.000 A 
ENDROOT
BRANCH   2   1
ATOM      1 HG   UNL     1      -2.049  -0.750   0.000  0.00  0.00    +0.000 Hg
ATOM     12 CL   UNL     1      -0.750  -1.500   0.000  0.00  0.00    +0.000 Cl
ENDBRANCH   2   1
TORSDOF 1