REMARK  Name = 167410
REMARK  5 active torsions:
REMARK  status: ('A' for Active; 'I' for Inactive)
REMARK    1  A    between atoms: C_2  and  O_13
REMARK    2  A    between atoms: C_6  and  O_22
REMARK    3  A    between atoms: C_9  and  C_14
REMARK    4  A    between atoms: C_16  and  O_21
REMARK    5  A    between atoms: C_17  and  O_20
REMARK                            x       y       z     vdW  Elec       q    Type
REMARK                         _______ _______ _______ _____ _____    ______ ____
ROOT
ATOM      1  C   UNL     1      -0.375   6.649   0.000  0.00  0.00    +0.000 A 
ATOM      2  C   UNL     1       0.924   7.399   0.000  0.00  0.00    +0.000 A 
ATOM      5  C   UNL     1       2.223   6.649   0.000  0.00  0.00    +0.000 A 
ATOM      6  O   UNL     1       3.522   7.399   0.000  0.00  0.00    +0.000 OA
ATOM      7  C   UNL     1       4.821   6.649   0.000  0.00  0.00    +0.000 A 
ATOM     18  C   UNL     1       4.821   5.149   0.000  0.00  0.00    +0.000 A 
ATOM     19 XX   UNL     1       6.120   4.399   0.000  0.00  0.00    +0.000 Xx
ATOM     20  C   UNL     1       3.522   4.399   0.000  0.00  0.00    +0.000 A 
ATOM     21  O   UNL     1       3.522   2.900   0.000  0.00  0.00    +0.000 OA
ATOM     22  C   UNL     1       2.223   5.149   0.000  0.00  0.00    +0.000 A 
ATOM     23  C   UNL     1       0.924   4.399   0.000  0.00  0.00    +0.000 A 
ATOM     24  C   UNL     1      -0.375   5.149   0.000  0.00  0.00    +0.000 A 
ENDROOT
BRANCH   7   8
ATOM      8  C   UNL     1       6.120   7.399   0.000  0.00  0.00    +0.000 A 
ATOM      9  C   UNL     1       6.120   8.899   0.000  0.00  0.00    +0.000 A 
ATOM     10  C   UNL     1       7.419   9.649   0.000  0.00  0.00    +0.000 A 
ATOM     11  C   UNL     1       8.718   8.899   0.000  0.00  0.00    +0.000 A 
ATOM     14  C   UNL     1       8.718   7.399   0.000  0.00  0.00    +0.000 A 
ATOM     17  C   UNL     1       7.419   6.649   0.000  0.00  0.00    +0.000 A 
BRANCH  11  12
ATOM     12  O   UNL     1      10.017   9.649   0.000  0.00  0.00    +0.000 OA
ATOM     13  H   UNL     1      10.829   9.181   0.000  0.00  0.00    +0.000 HD
ENDBRANCH  11  12
BRANCH  14  15
ATOM     15  O   UNL     1      10.017   6.649   0.000  0.00  0.00    +0.000 OA
ATOM     16  H   UNL     1      10.017   5.713   0.000  0.00  0.00    +0.000 HD
ENDBRANCH  14  15
ENDBRANCH   7   8
BRANCH   2   3
ATOM      3  O   UNL     1       0.924   8.899   0.000  0.00  0.00    +0.000 OA
ATOM      4  H   UNL     1       1.735   9.368   0.000  0.00  0.00    +0.000 HD
ENDBRANCH   2   3
BRANCH  24  25
ATOM     25  O   UNL     1      -1.674   4.399   0.000  0.00  0.00    +0.000 OA
ATOM     26  H   UNL     1      -2.485   4.868   0.000  0.00  0.00    +0.000 HD
ENDBRANCH  24  25
TORSDOF 5