REMARK  Name = 18938
REMARK  15 active torsions:
REMARK  status: ('A' for Active; 'I' for Inactive)
REMARK    1  A    between atoms: C_1  and  O_2
REMARK    2  A    between atoms: C_1  and  C_4
REMARK    3  A    between atoms: C_4  and  O_5
REMARK    4  A    between atoms: C_4  and  C_6
REMARK    5  A    between atoms: C_6  and  C_7
REMARK    6  A    between atoms: C_7  and  C_8
REMARK    7  A    between atoms: C_8  and  C_9
REMARK    8  A    between atoms: C_9  and  C_10
REMARK    9  A    between atoms: C_10  and  C_11
REMARK   10  A    between atoms: C_11  and  C_12
REMARK   11  A    between atoms: C_12  and  C_13
REMARK   12  A    between atoms: C_13  and  C_14
REMARK   13  A    between atoms: C_14  and  C_15
REMARK   14  A    between atoms: C_15  and  C_16
REMARK   15  A    between atoms: C_16  and  C_17
REMARK                            x       y       z     vdW  Elec       q    Type
REMARK                         _______ _______ _______ _____ _____    ______ ____
ROOT
ATOM      5  C   UNL     1       5.524  -2.324   0.000  0.00  0.00    +0.000 C 
ENDROOT
BRANCH   5   4
ATOM      4  C   UNL     1       4.774  -1.025   0.000  0.00  0.00    +0.003 C 
BRANCH   4   3
ATOM      3  C   UNL     1       3.275  -1.025   0.000  0.00  0.00    +0.043 C 
BRANCH   3   2
ATOM      2  C   UNL     1       2.525   0.275   0.000  0.00  0.00    +0.222 C 
BRANCH   2   1
ATOM      1  C   UNL     1       3.275   1.574   0.000  0.00  0.00    +0.334 C 
ATOM     17  O   UNL     1       4.774   1.574   0.000  0.00  0.00    -0.248 OA
BRANCH   1  18
ATOM     18  O   UNL     1       2.525   2.873   0.000  0.00  0.00    -0.479 OA
ATOM     19  H   UNL     1       2.993   3.684   0.000  0.00  0.00    +0.295 HD
ENDBRANCH   1  18
ENDBRANCH   2   1
BRANCH   2  15
ATOM     15  O   UNL     1       1.025   0.275   0.000  0.00  0.00    -0.381 OA
ATOM     16  H   UNL     1       0.539   1.115   0.000  0.00  0.00    +0.211 HD
ENDBRANCH   2  15
ENDBRANCH   3   2
ENDBRANCH   4   3
ENDBRANCH   5   4
BRANCH   5   6
ATOM      6  C   UNL     1       7.024  -2.324   0.000  0.00  0.00    +0.000 C 
BRANCH   6   7
ATOM      7  C   UNL     1       7.774  -3.623   0.000  0.00  0.00    +0.000 C 
BRANCH   7   8
ATOM      8  C   UNL     1       9.274  -3.623   0.000  0.00  0.00    -0.000 C 
BRANCH   8   9
ATOM      9  C   UNL     1      10.025  -4.922   0.000  0.00  0.00    -0.000 C 
BRANCH   9  10
ATOM     10  C   UNL     1      11.525  -4.922   0.000  0.00  0.00    -0.000 C 
BRANCH  10  11
ATOM     11  C   UNL     1      12.275  -6.221   0.000  0.00  0.00    -0.000 C 
BRANCH  11  12
ATOM     12  C   UNL     1      13.775  -6.221   0.000  0.00  0.00    -0.000 C 
BRANCH  12  13
ATOM     13  C   UNL     1      14.525  -7.520   0.000  0.00  0.00    -0.003 C 
ATOM     14  C   UNL     1      16.025  -7.520   0.000  0.00  0.00    +0.004 C 
ENDBRANCH  12  13
ENDBRANCH  11  12
ENDBRANCH  10  11
ENDBRANCH   9  10
ENDBRANCH   8   9
ENDBRANCH   7   8
ENDBRANCH   6   7
ENDBRANCH   5   6
TORSDOF 14