REMARK  Name = 18891
REMARK  6 active torsions:
REMARK  status: ('A' for Active; 'I' for Inactive)
REMARK    1  A    between atoms: N_1  and  C_19
REMARK    2  A    between atoms: C_19  and  C_20
REMARK    3  A    between atoms: C_20  and  C_21
REMARK    4  A    between atoms: C_21  and  N_22
REMARK    5  A    between atoms: N_22  and  C_23
REMARK    6  A    between atoms: N_22  and  C_24
REMARK                            x       y       z     vdW  Elec       q    Type
REMARK                         _______ _______ _______ _____ _____    ______ ____
ROOT
ATOM      1  N   UNL     1      -2.873  -7.024   0.000  0.00  0.00    -0.298 N 
ATOM      8  C   UNL     1      -4.172  -7.774   0.000  0.00  0.00    +0.048 A 
ATOM      9  C   UNL     1      -4.172  -9.274   0.000  0.00  0.00    +0.034 A 
ATOM     10  C   UNL     1      -5.471 -10.025   0.000  0.00  0.00    +0.017 A 
ATOM     11  C   UNL     1      -6.770  -9.274   0.000  0.00  0.00    +0.001 A 
ATOM     12  C   UNL     1      -6.770  -7.774   0.000  0.00  0.00    +0.002 A 
ATOM     13  S   UNL     1      -2.873 -10.025   0.000  0.00  0.00    -0.086 S 
ATOM     14  C   UNL     1      -1.574  -9.274   0.000  0.00  0.00    +0.035 A 
ATOM     15  C   UNL     1      -0.275 -10.025   0.000  0.00  0.00    +0.017 A 
ATOM     16  C   UNL     1       1.025  -9.274   0.000  0.00  0.00    +0.010 A 
ATOM     17  C   UNL     1       1.025  -7.774   0.000  0.00  0.00    -0.016 A 
ATOM     18  C   UNL     1      -0.275  -7.024   0.000  0.00  0.00    +0.005 A 
ATOM     19  C   UNL     1      -0.275  -5.524   0.000  0.00  0.00    +0.010 A 
ATOM     20  C   UNL     1       1.025  -4.774   0.000  0.00  0.00    +0.001 A 
ATOM     21  C   UNL     1       2.324  -5.524   0.000  0.00  0.00    +0.001 A 
ATOM     22  C   UNL     1       2.324  -7.024   0.000  0.00  0.00    +0.008 A 
ATOM     23  C   UNL     1      -5.471  -7.024   0.000  0.00  0.00    +0.024 A 
ATOM     24  C   UNL     1      -1.574  -7.774   0.000  0.00  0.00    +0.056 A 
ENDROOT
BRANCH   1   2
ATOM      2  C   UNL     1      -2.873  -5.524   0.000  0.00  0.00    +0.112 C 
BRANCH   2   3
ATOM      3  C   UNL     1      -1.574  -4.774   0.000  0.00  0.00    +0.035 C 
BRANCH   3   4
ATOM      4  C   UNL     1      -1.574  -3.275   0.000  0.00  0.00    +0.085 C 
BRANCH   4   5
ATOM      5  N   UNL     1      -0.275  -2.525   0.000  0.00  0.00    -0.308 NA
ATOM      6  C   UNL     1      -0.275  -1.025   0.000  0.00  0.00    +0.104 C 
ATOM      7  C   UNL     1       1.025  -3.275   0.000  0.00  0.00    +0.104 C 
ENDBRANCH   4   5
ENDBRANCH   3   4
ENDBRANCH   2   3
ENDBRANCH   1   2
TORSDOF 4