REMARK  Name = 166464
REMARK  4 active torsions:
REMARK  status: ('A' for Active; 'I' for Inactive)
REMARK    1  A    between atoms: C_3  and  N_10
REMARK    2  A    between atoms: C_6  and  S_8
REMARK    3  A    between atoms: S_8  and  C_9
REMARK    4  A    between atoms: C_11  and  C_13
REMARK                            x       y       z     vdW  Elec       q    Type
REMARK                         _______ _______ _______ _____ _____    ______ ____
ROOT
ATOM      7  C   UNL     1      -4.647  -1.500   0.000  0.00  0.00    +0.033 A 
ATOM      8  C   UNL     1      -4.647  -3.000   0.000  0.00  0.00    +0.024 A 
ATOM      9  C   UNL     1      -5.946  -3.750   0.000  0.00  0.00    +0.016 A 
ATOM     10  C   UNL     1      -7.245  -3.000   0.000  0.00  0.00    +0.008 A 
ATOM     13  C   UNL     1      -7.245  -1.500   0.000  0.00  0.00    +0.016 A 
ATOM     14  C   UNL     1      -5.946  -0.750   0.000  0.00  0.00    +0.024 A 
ENDROOT
BRANCH   7   5
ATOM      3  C   UNL     1      -2.049  -1.500   0.000  0.00  0.00    +0.232 C 
ATOM      4  O   UNL     1      -0.750  -0.750   0.000  0.00  0.00    -0.274 OA
ATOM      5  N   UNL     1      -3.348  -0.750   0.000  0.00  0.00    -0.285 N 
ATOM      6  H   UNL     1      -3.348   0.234   0.000  0.00  0.00    +0.155 HD
BRANCH   3   2
ATOM      1 CL   UNL     1      -0.750  -3.750   0.000  0.00  0.00    -0.116 Cl
ATOM      2  C   UNL     1      -2.049  -3.000   0.000  0.00  0.00    +0.204 C 
ENDBRANCH   3   2
ENDBRANCH   7   5
BRANCH  10  11
ATOM     11  S   UNL     1      -8.544  -3.750   0.000  0.00  0.00    -0.129 S 
ATOM     12  C   UNL     1      -9.843  -3.000   0.000  0.00  0.00    +0.090 C 
ENDBRANCH  10  11
TORSDOF 3