REMARK  Name = 18298
REMARK  12 active torsions:
REMARK  status: ('A' for Active; 'I' for Inactive)
REMARK    1  A    between atoms: C_1  and  C_32
REMARK    2  A    between atoms: C_5  and  C_33
REMARK    3  A    between atoms: C_7  and  C_34
REMARK    4  A    between atoms: C_8  and  O_13
REMARK    5  A    between atoms: C_8  and  C_35
REMARK    6  A    between atoms: C_22  and  C_37
REMARK    7  A    between atoms: C_23  and  C_36
REMARK    8  A    between atoms: C_25  and  C_39
REMARK    9  A    between atoms: C_29  and  O_31
REMARK   10  A    between atoms: C_29  and  C_38
REMARK   11  A    between atoms: C_34  and  C_35
REMARK   12  A    between atoms: C_36  and  C_38
REMARK                            x       y       z     vdW  Elec       q    Type
REMARK                         _______ _______ _______ _____ _____    ______ ____
ROOT
ATOM      1  C   UNL     1      -3.645   3.617   0.000  0.00  0.00    +0.000 C 
ATOM      2  C   UNL     1      -5.072   4.079   0.000  0.00  0.00    +0.000 C 
ATOM      3  C   UNL     1      -3.296   2.158   0.000  0.00  0.00    +0.000 C 
ATOM      4  C   UNL     1      -3.514   0.674   0.000  0.00  0.00    +0.000 C 
ATOM      5  C   UNL     1      -2.441  -0.375   0.000  0.00  0.00    +0.000 C 
ATOM      6  C   UNL     1      -3.671  -0.990   0.000  0.00  0.00    +0.000 C 
ATOM      7  C   UNL     1      -5.142  -0.695   0.000  0.00  0.00    +0.000 C 
ATOM      8  C   UNL     1      -2.693  -2.128   0.000  0.00  0.00    +0.000 C 
ATOM     15  C   UNL     1      -1.234  -1.779   0.000  0.00  0.00    +0.000 C 
ATOM     16  C   UNL     1       0.250  -1.996   0.000  0.00  0.00    +0.000 C 
ATOM     17  C   UNL     1       1.299  -0.924   0.000  0.00  0.00    +0.000 C 
ATOM     18  N   UNL     1       1.047   0.555   0.000  0.00  0.00    -1.000 N 
ATOM     19  C   UNL     1       2.703   0.283   0.000  0.00  0.00    +0.000 C 
ATOM     20  C   UNL     1       2.921   1.768   0.000  0.00  0.00    +0.000 C 
ATOM     21  C   UNL     1       1.848   2.816   0.000  0.00  0.00    +0.000 C 
ATOM     22  C   UNL     1       2.797   3.107   0.000  0.00  0.00    +0.000 C 
ATOM     23  C   UNL     1       1.314   2.880   0.000  0.00  0.00    +0.000 C 
ATOM     24  C   UNL     1       2.002   4.213   0.000  0.00  0.00    +0.000 C 
ATOM     25  C   UNL     1       0.641   4.220   0.000  0.00  0.00    +0.000 C 
ATOM     26  C   UNL     1      -0.844   4.438   0.000  0.00  0.00    +0.000 C 
ATOM     27  C   UNL     1      -1.892   3.365   0.000  0.00  0.00    +0.000 C 
ATOM     28  N   UNL     1       0.369   2.565   0.000  0.00  0.00    +1.000 N 
ATOM     29  C   UNL     1       3.052  -1.175   0.000  0.00  0.00    +0.000 C 
ATOM     30  C   UNL     1       4.479  -1.637   0.000  0.00  0.00    +0.000 C 
ATOM     31 CU   UNL     1      -0.297   1.221   0.000  0.00  0.00    +0.000 Cu
ATOM     32  C   UNL     1       1.914  -2.153   0.000  0.00  0.00    +0.000 C 
ATOM     39  N   UNL     1      -0.963  -0.123   0.000  0.00  0.00    +1.000 N 
ATOM     40  N   UNL     1      -1.641   1.887   0.000  0.00  0.00    -1.000 N 
ATOM     41  C   UNL     1      -2.508   4.595   0.000  0.00  0.00    +0.000 C 
ENDROOT
BRANCH   8   9
ATOM      9  C   UNL     1      -3.154  -3.555   0.000  0.00  0.00    +0.000 C 
BRANCH   9  10
ATOM     10  C   UNL     1      -2.149  -4.668   0.000  0.00  0.00    +0.000 C 
BRANCH  10  11
ATOM     11  C   UNL     1      -0.682  -4.354   0.000  0.00  0.00    +0.000 C 
ATOM     12  O   UNL     1       0.323  -5.468   0.000  0.00  0.00    +0.000 OA
BRANCH  11  13
ATOM     13  O   UNL     1      -0.221  -2.927   0.000  0.00  0.00    +0.000 OA
ATOM     14  H   UNL     1       0.695  -2.731   0.000  0.00  0.00    +0.000 HD
ENDBRANCH  11  13
ENDBRANCH  10  11
ENDBRANCH   9  10
ENDBRANCH   8   9
BRANCH  32  33
ATOM     33  C   UNL     1       1.619  -3.624   0.000  0.00  0.00    +0.000 C 
BRANCH  33  34
ATOM     34  C   UNL     1       2.745  -4.615   0.000  0.00  0.00    +0.000 C 
BRANCH  34  35
ATOM     35  C   UNL     1       4.166  -4.135   0.000  0.00  0.00    +0.000 C 
ATOM     36  O   UNL     1       5.293  -5.126   0.000  0.00  0.00    +0.000 OA
BRANCH  35  37
ATOM     37  O   UNL     1       4.462  -2.665   0.000  0.00  0.00    +0.000 OA
ATOM     38  H   UNL     1       5.350  -2.365   0.000  0.00  0.00    +0.000 HD
ENDBRANCH  35  37
ENDBRANCH  34  35
ENDBRANCH  33  34
ENDBRANCH  32  33
TORSDOF 8