REMARK  Name = 172924
REMARK  13 active torsions:
REMARK  status: ('A' for Active; 'I' for Inactive)
REMARK    1  A    between atoms: C_5  and  O_26
REMARK    2  A    between atoms: C_6  and  O_25
REMARK    3  A    between atoms: C_7  and  C_27
REMARK    4  A    between atoms: C_10  and  O_31
REMARK    5  A    between atoms: C_13  and  C_24
REMARK    6  A    between atoms: C_19  and  O_22
REMARK    7  A    between atoms: C_21  and  C_23
REMARK    8  A    between atoms: C_27  and  O_29
REMARK    9  A    between atoms: O_29  and  C_30
REMARK   10  A    between atoms: O_31  and  C_32
REMARK   11  A    between atoms: C_32  and  C_34
REMARK   12  A    between atoms: C_35  and  C_36
REMARK   13  A    between atoms: C_35  and  C_37
REMARK                            x       y       z     vdW  Elec       q    Type
REMARK                         _______ _______ _______ _____ _____    ______ ____
ROOT
ATOM      1  O   UNL     1       0.750   5.250   0.000  0.00  0.00    -0.289 OA
ATOM      2  C   UNL     1       2.049   4.500   0.000  0.00  0.00    +0.198 C 
ATOM      3  C   UNL     1       2.049   3.000   0.000  0.00  0.00    +0.158 C 
ATOM      6  C   UNL     1       3.348   2.250   0.000  0.00  0.00    -0.024 C 
ATOM      7  C   UNL     1       3.348   0.750   0.000  0.00  0.00    +0.043 C 
ATOM      8  C   UNL     1       4.647   3.000   0.000  0.00  0.00    +0.029 C 
ATOM      9  C   UNL     1       5.946   2.250   0.000  0.00  0.00    +0.053 C 
ATOM     10  C   UNL     1       7.245   3.000   0.000  0.00  0.00    +0.186 C 
ATOM     11  C   UNL     1       7.245   4.500   0.000  0.00  0.00    +0.047 C 
ATOM     12  C   UNL     1       8.855   4.390   0.000  0.00  0.00    +0.172 C 
ATOM     13  O   UNL     1       9.605   5.689   0.000  0.00  0.00    -0.359 OA
ATOM     14  C   UNL     1       8.544   6.750   0.000  0.00  0.00    +0.201 C 
ATOM     19  C   UNL     1       7.245   7.500   0.000  0.00  0.00    +0.186 C 
ATOM     22  C   UNL     1       5.946   6.750   0.000  0.00  0.00    +0.151 C 
ATOM     25  C   UNL     1       5.946   5.250   0.000  0.00  0.00    +0.039 C 
ATOM     26  C   UNL     1       8.544   5.250   0.000  0.00  0.00    +0.099 C 
ATOM     27  C   UNL     1       9.843   4.500   0.000  0.00  0.00    +0.292 C 
ATOM     35  C   UNL     1       9.843   3.000   0.000  0.00  0.00    +0.349 C 
ATOM     36  O   UNL     1      11.142   2.250   0.000  0.00  0.00    -0.247 OA
ATOM     37  O   UNL     1       8.544   2.250   0.000  0.00  0.00    -0.458 OA
ATOM     38  C   UNL     1       4.647   4.500   0.000  0.00  0.00    -0.012 C 
ATOM     39  C   UNL     1       4.647   6.000   0.000  0.00  0.00    +0.012 C 
ATOM     40  C   UNL     1       3.348   5.250   0.000  0.00  0.00    +0.090 C 
ENDROOT
BRANCH   3   4
ATOM      4  O   UNL     1       0.750   2.250   0.000  0.00  0.00    -0.503 OA
ATOM      5  H   UNL     1      -0.061   2.718   0.000  0.00  0.00    +0.292 HD
ENDBRANCH   3   4
BRANCH  14  15
ATOM     15  C   UNL     1       9.457   7.940   0.000  0.00  0.00    +0.342 C 
ATOM     18  O   UNL     1       8.883   9.326   0.000  0.00  0.00    -0.247 OA
BRANCH  15  16
ATOM     16  O   UNL     1      10.945   7.744   0.000  0.00  0.00    -0.466 OA
ATOM     17  C   UNL     1      11.519   6.358   0.000  0.00  0.00    +0.280 C 
ENDBRANCH  15  16
ENDBRANCH  14  15
BRANCH  19  20
ATOM     20  O   UNL     1       7.245   9.000   0.000  0.00  0.00    -0.386 OA
ATOM     21  H   UNL     1       8.085   9.485   0.000  0.00  0.00    +0.210 HD
ENDBRANCH  19  20
BRANCH  22  23
ATOM     23  O   UNL     1       4.647   7.500   0.000  0.00  0.00    -0.389 OA
ATOM     24  H   UNL     1       4.647   8.470   0.000  0.00  0.00    +0.210 HD
ENDBRANCH  22  23
BRANCH  27  28
ATOM     28  O   UNL     1      11.142   5.250   0.000  0.00  0.00    -0.446 OA
BRANCH  28  29
ATOM     29  C   UNL     1      12.441   4.500   0.000  0.00  0.00    +0.333 C 
ATOM     34  O   UNL     1      13.740   5.250   0.000  0.00  0.00    -0.246 OA
BRANCH  29  30
ATOM     30  C   UNL     1      12.441   3.000   0.000  0.00  0.00    +0.090 C 
ATOM     31  C   UNL     1      13.740   2.250   0.000  0.00  0.00    -0.069 C 
ATOM     32  C   UNL     1      15.039   3.000   0.000  0.00  0.00    +0.039 C 
ATOM     33  C   UNL     1      13.740   0.750   0.000  0.00  0.00    +0.039 C 
ENDBRANCH  29  30
ENDBRANCH  28  29
ENDBRANCH  27  28
TORSDOF 8