REMARK  Name = 170984
REMARK  7 active torsions:
REMARK  status: ('A' for Active; 'I' for Inactive)
REMARK    1  A    between atoms: C_17  and  C_18
REMARK    2  A    between atoms: C_17  and  C_19
REMARK    3  A    between atoms: C_18  and  C_28
REMARK    4  A    between atoms: C_19  and  N_30
REMARK    5  A    between atoms: C_20  and  C_28
REMARK    6  A    between atoms: C_21  and  C_28
REMARK    7  A    between atoms: C_27  and  N_29
REMARK                            x       y       z     vdW  Elec       q    Type
REMARK                         _______ _______ _______ _____ _____    ______ ____
ROOT
ATOM     13  C   UNL     1      -9.302   0.341   0.000  0.00  0.00    +0.084 C 
ENDROOT
BRANCH  13  12
ATOM      9  C   UNL     1      -5.405  -1.909   0.000  0.00  0.00    +0.095 C 
ATOM     10  C   UNL     1      -6.704  -2.659   0.000  0.00  0.00    +0.040 C 
ATOM     11  C   UNL     1      -8.003  -1.909   0.000  0.00  0.00    +0.086 C 
ATOM     12  N   UNL     1      -8.003  -0.409   0.000  0.00  0.00    -0.302 NA
ATOM     31  C   UNL     1      -6.704   0.341   0.000  0.00  0.00    +0.086 C 
ATOM     32  C   UNL     1      -5.405  -0.409   0.000  0.00  0.00    +0.040 C 
BRANCH   9   8
ATOM      1  C   UNL     1      -3.022  -7.004   0.000  0.00  0.00    +0.002 A 
ATOM      2  C   UNL     1      -2.019  -5.889   0.000  0.00  0.00    +0.028 A 
ATOM      3  C   UNL     1      -2.482  -4.463   0.000  0.00  0.00    +0.067 A 
ATOM      4  N   UNL     1      -1.732  -3.164   0.000  0.00  0.00    -0.306 N 
ATOM      5  H   UNL     1      -0.753  -3.061   0.000  0.00  0.00    +0.170 HD
ATOM      6  C   UNL     1      -2.736  -2.049   0.000  0.00  0.00    +0.328 A 
ATOM      7  O   UNL     1      -2.424  -0.582   0.000  0.00  0.00    -0.247 OA
ATOM      8  N   UNL     1      -4.106  -2.659   0.000  0.00  0.00    -0.289 N 
ATOM     33  C   UNL     1      -3.949  -4.151   0.000  0.00  0.00    +0.070 A 
ATOM     34  C   UNL     1      -4.953  -5.266   0.000  0.00  0.00    +0.028 A 
ATOM     35  C   UNL     1      -4.489  -6.692   0.000  0.00  0.00    +0.002 A 
ENDBRANCH   9   8
ENDBRANCH  13  12
BRANCH  13  14
ATOM     14  C   UNL     1     -10.601  -0.409   0.000  0.00  0.00    +0.016 C 
BRANCH  14  15
ATOM     15  C   UNL     1     -11.900   0.341   0.000  0.00  0.00    +0.014 C 
BRANCH  15  16
ATOM     16  C   UNL     1     -13.199  -0.409   0.000  0.00  0.00    +0.049 C 
BRANCH  16  17
ATOM     17  C   UNL     1     -13.199  -1.909   0.000  0.00  0.00    -0.040 A 
ATOM     18  C   UNL     1     -14.498  -2.659   0.000  0.00  0.00    +0.007 A 
ATOM     19  C   UNL     1     -14.498  -4.159   0.000  0.00  0.00    +0.038 A 
ATOM     20  C   UNL     1     -13.199  -4.909   0.000  0.00  0.00    +0.123 A 
ATOM     21  F   UNL     1     -13.199  -6.409   0.000  0.00  0.00    -0.205 F 
ATOM     22  C   UNL     1     -11.900  -4.159   0.000  0.00  0.00    +0.038 A 
ATOM     23  C   UNL     1     -11.900  -2.659   0.000  0.00  0.00    +0.007 A 
ENDBRANCH  16  17
BRANCH  16  24
ATOM     24  C   UNL     1     -14.498   0.341   0.000  0.00  0.00    -0.040 A 
ATOM     25  C   UNL     1     -14.498   1.841   0.000  0.00  0.00    +0.007 A 
ATOM     26  C   UNL     1     -15.797   2.591   0.000  0.00  0.00    +0.038 A 
ATOM     27  C   UNL     1     -17.096   1.841   0.000  0.00  0.00    +0.123 A 
ATOM     28  F   UNL     1     -18.395   2.591   0.000  0.00  0.00    -0.205 F 
ATOM     29  C   UNL     1     -17.096   0.341   0.000  0.00  0.00    +0.038 A 
ATOM     30  C   UNL     1     -15.797  -0.409   0.000  0.00  0.00    +0.007 A 
ENDBRANCH  16  24
ENDBRANCH  15  16
ENDBRANCH  14  15
ENDBRANCH  13  14
TORSDOF 7