REMARK  Name = 177365
REMARK  9 active torsions:
REMARK  status: ('A' for Active; 'I' for Inactive)
REMARK    1  A    between atoms: C_2  and  N_22
REMARK    2  A    between atoms: C_7  and  N_23
REMARK    3  A    between atoms: C_8  and  N_23
REMARK    4  A    between atoms: C_15  and  N_30
REMARK    5  A    between atoms: N_22  and  S_24
REMARK    6  A    between atoms: S_24  and  C_27
REMARK    7  A    between atoms: C_27  and  C_28
REMARK    8  A    between atoms: C_28  and  C_29
REMARK    9  A    between atoms: C_29  and  N_33
REMARK                            x       y       z     vdW  Elec       q    Type
REMARK                         _______ _______ _______ _____ _____    ______ ____
ROOT
ATOM      1 CL   UNL     1       2.123  14.324   0.000  0.00  0.00    -0.145 Cl
ATOM      2  H   UNL     1       3.453  14.324   0.000  0.00  0.00    +0.145 HD
ENDROOT
TORSDOF 0