REMARK  Name = 176655
REMARK  2 active torsions:
REMARK  status: ('A' for Active; 'I' for Inactive)
REMARK    1  A    between atoms: C_4  and  C_22
REMARK    2  A    between atoms: C_5  and  C_11
REMARK                            x       y       z     vdW  Elec       q    Type
REMARK                         _______ _______ _______ _____ _____    ______ ____
ROOT
ATOM      3  C   UNL     1      -5.212   4.929   0.000  0.00  0.00    +0.068 C 
ATOM      4  C   UNL     1      -4.462   3.630   0.000  0.00  0.00    +0.013 C 
ENDROOT
BRANCH   3   2
ATOM      1  O   UNL     1      -7.593   6.142   0.000  0.00  0.00    -0.436 OA
ATOM      2  C   UNL     1      -6.712   4.928   0.000  0.00  0.00    +0.221 A 
ATOM     14  N   UNL     1      -7.593   3.715   0.000  0.00  0.00    -0.209 NA
ATOM     15  C   UNL     1      -9.020   4.178   0.000  0.00  0.00    +0.110 A 
ATOM     16  C   UNL     1     -10.319   3.429   0.000  0.00  0.00    +0.031 A 
ATOM     17  C   UNL     1     -11.618   4.178   0.000  0.00  0.00    +0.002 A 
ATOM     18  C   UNL     1     -11.618   5.678   0.000  0.00  0.00    +0.004 A 
ATOM     19  C   UNL     1     -10.319   6.428   0.000  0.00  0.00    +0.048 A 
ATOM     20  C   UNL     1      -9.020   5.678   0.000  0.00  0.00    +0.156 A 
ENDBRANCH   3   2
BRANCH   4   5
ATOM      5  C   UNL     1      -5.212   2.330   0.000  0.00  0.00    -0.021 A 
ATOM      6  C   UNL     1      -6.712   2.330   0.000  0.00  0.00    +0.012 A 
ATOM      7  C   UNL     1      -7.462   1.031   0.000  0.00  0.00    +0.050 A 
ATOM      8  C   UNL     1      -6.712  -0.268   0.000  0.00  0.00    +0.166 A 
ATOM      9  C   UNL     1      -5.212  -0.268   0.000  0.00  0.00    +0.167 A 
ATOM     10  O   UNL     1      -4.748  -1.694   0.000  0.00  0.00    -0.453 OA
ATOM     11  C   UNL     1      -5.962  -2.576   0.000  0.00  0.00    +0.466 C 
ATOM     12  O   UNL     1      -7.175  -1.694   0.000  0.00  0.00    -0.453 OA
ATOM     13  C   UNL     1      -4.462   1.031   0.000  0.00  0.00    +0.057 A 
ENDBRANCH   4   5
TORSDOF 2