REMARK  Name = 109350
REMARK  21 active torsions:
REMARK  status: ('A' for Active; 'I' for Inactive)
REMARK    1  A    between atoms: C_1  and  C_24
REMARK    2  A    between atoms: C_2  and  C_45
REMARK    3  A    between atoms: C_3  and  C_45
REMARK    4  A    between atoms: C_4  and  C_45
REMARK    5  A    between atoms: C_5  and  O_52
REMARK    6  A    between atoms: C_6  and  O_53
REMARK    7  A    between atoms: C_7  and  O_54
REMARK    8  A    between atoms: C_8  and  O_55
REMARK    9  A    between atoms: C_24  and  C_40
REMARK   10  A    between atoms: C_25  and  C_37
REMARK   11  A    between atoms: C_25  and  C_42
REMARK   12  A    between atoms: C_26  and  C_38
REMARK   13  A    between atoms: C_26  and  C_41
REMARK   14  A    between atoms: C_33  and  O_52
REMARK   15  A    between atoms: C_34  and  O_53
REMARK   16  A    between atoms: C_35  and  O_54
REMARK   17  A    between atoms: C_36  and  O_55
REMARK   18  A    between atoms: C_42  and  C_43
REMARK   19  A    between atoms: C_42  and  N_47
REMARK   20  A    between atoms: C_44  and  O_56
REMARK   21  A    between atoms: C_45  and  O_56
REMARK                            x       y       z     vdW  Elec       q    Type
REMARK                         _______ _______ _______ _____ _____    ______ ____
ROOT
ATOM      6  C   UNL     1       5.048  14.808   0.000  0.00  0.00    +0.107 C 
ATOM      7  N   UNL     1       4.293  13.512   0.000  0.00  0.00    -0.293 N 
ATOM      8  C   UNL     1       5.038  12.210   0.000  0.00  0.00    +0.237 C 
ATOM      9  O   UNL     1       6.538  12.204   0.000  0.00  0.00    -0.274 OA
ATOM     31  C   UNL     1       2.793  13.518   0.000  0.00  0.00    +0.113 C 
ATOM     32  C   UNL     1       2.048  14.819   0.000  0.00  0.00    +0.054 C 
ATOM     33  C   UNL     1       2.803  16.116   0.000  0.00  0.00    -0.037 A 
ATOM     34  C   UNL     1       2.058  17.417   0.000  0.00  0.00    +0.053 A 
ATOM     35  C   UNL     1       2.813  18.714   0.000  0.00  0.00    +0.162 A 
ATOM     38  C   UNL     1       4.313  18.708   0.000  0.00  0.00    +0.162 A 
ATOM     41  C   UNL     1       5.058  17.406   0.000  0.00  0.00    +0.055 A 
ATOM     42  C   UNL     1       4.303  16.110   0.000  0.00  0.00    -0.020 A 
ENDROOT
BRANCH  35  36
ATOM     36  O   UNL     1       2.067  20.015   0.000  0.00  0.00    -0.491 OA
ATOM     37  C   UNL     1       0.567  20.021   0.000  0.00  0.00    +0.277 C 
ENDBRANCH  35  36
BRANCH  38  39
ATOM     39  O   UNL     1       5.067  20.004   0.000  0.00  0.00    -0.491 OA
ATOM     40  C   UNL     1       4.322  21.306   0.000  0.00  0.00    +0.277 C 
ENDBRANCH  38  39
BRANCH   6   5
ATOM      5  C   UNL     1       6.524  14.542   0.000  0.00  0.00    +0.031 C 
BRANCH   5   4
ATOM      3  C   UNL     1       9.084  14.983   0.000  0.00  0.00    +0.006 C 
ATOM      4  C   UNL     1       7.677  15.502   0.000  0.00  0.00    -0.003 C 
ATOM     43  C   UNL     1       7.422  16.980   0.000  0.00  0.00    +0.027 C 
ATOM     44  C   UNL     1       8.575  17.940   0.000  0.00  0.00    +0.087 C 
ATOM     45  N   UNL     1       9.982  17.421   0.000  0.00  0.00    -0.295 NA
ATOM     46  C   UNL     1      11.135  18.381   0.000  0.00  0.00    +0.089 C 
ATOM     47  C   UNL     1      10.880  19.859   0.000  0.00  0.00    +0.051 C 
ATOM     48  C   UNL     1       9.472  20.378   0.000  0.00  0.00    -0.038 A 
ATOM     49  C   UNL     1       9.217  21.856   0.000  0.00  0.00    +0.053 A 
ATOM     50  C   UNL     1       7.810  22.374   0.000  0.00  0.00    +0.162 A 
ATOM     53  C   UNL     1       6.657  21.415   0.000  0.00  0.00    +0.162 A 
ATOM     56  C   UNL     1       6.912  19.936   0.000  0.00  0.00    +0.054 A 
ATOM     57  C   UNL     1       8.320  19.418   0.000  0.00  0.00    -0.023 A 
ATOM     58  C   UNL     1      10.237  15.943   0.000  0.00  0.00    +0.088 C 
BRANCH   3   2
ATOM      1  C   UNL     1       8.186  12.545   0.000  0.00  0.00    +0.004 C 
ATOM      2  C   UNL     1       9.339  13.505   0.000  0.00  0.00    +0.002 C 
ENDBRANCH   3   2
BRANCH  50  51
ATOM     51  O   UNL     1       7.555  23.852   0.000  0.00  0.00    -0.491 OA
ATOM     52  C   UNL     1       8.708  24.812   0.000  0.00  0.00    +0.277 C 
ENDBRANCH  50  51
BRANCH  53  54
ATOM     54  O   UNL     1       5.250  21.933   0.000  0.00  0.00    -0.491 OA
ATOM     55  C   UNL     1       4.995  23.411   0.000  0.00  0.00    +0.277 C 
ENDBRANCH  53  54
ENDBRANCH   5   4
ENDBRANCH   6   5
BRANCH   8  10
ATOM     10  C   UNL     1       4.283  10.914   0.000  0.00  0.00    +0.167 C 
BRANCH  10  11
ATOM     11  N   UNL     1       2.783  10.919   0.000  0.00  0.00    -0.269 N 
ATOM     12  H   UNL     1       2.038  12.221   0.000  0.00  0.00    +0.153 HD
ATOM     13  C   UNL     1       2.028   9.623   0.000  0.00  0.00    +0.401 C 
ATOM     19  O   UNL     1       2.773   8.321   0.000  0.00  0.00    -0.226 OA
BRANCH  13  14
ATOM     14  O   UNL     1       0.528   9.629   0.000  0.00  0.00    -0.445 OA
BRANCH  14  15
ATOM     15  C   UNL     1      -0.227   8.333   0.000  0.00  0.00    +0.107 C 
ATOM     16  C   UNL     1       1.069   7.578   0.000  0.00  0.00    +0.055 C 
ATOM     17  C   UNL     1      -1.523   9.088   0.000  0.00  0.00    +0.055 C 
ATOM     18  C   UNL     1      -0.982   7.037   0.000  0.00  0.00    +0.055 C 
ENDBRANCH  14  15
ENDBRANCH  13  14
ENDBRANCH  10  11
BRANCH  10  20
ATOM     20  C   UNL     1       5.028   9.612   0.000  0.00  0.00    +0.069 C 
BRANCH  20  21
ATOM     21  C   UNL     1       6.528   9.606   0.000  0.00  0.00    -0.020 A 
ATOM     22  C   UNL     1       7.405   8.389   0.000  0.00  0.00    +0.003 A 
ATOM     23  C   UNL     1       8.833   8.847   0.000  0.00  0.00    +0.047 A 
ATOM     24  N   UNL     1       8.839  10.347   0.000  0.00  0.00    -0.360 N 
ATOM     25  H   UNL     1      10.056  11.224   0.000  0.00  0.00    +0.165 HD
ATOM     26  C   UNL     1       9.944   7.840   0.000  0.00  0.00    +0.026 A 
ATOM     27  C   UNL     1       9.627   6.373   0.000  0.00  0.00    +0.002 A 
ATOM     28  C   UNL     1       8.198   5.915   0.000  0.00  0.00    +0.001 A 
ATOM     29  C   UNL     1       7.088   6.923   0.000  0.00  0.00    +0.010 A 
ATOM     30  C   UNL     1       7.414  10.816   0.000  0.00  0.00    +0.087 A 
ENDBRANCH  20  21
ENDBRANCH  10  20
ENDBRANCH   8  10
TORSDOF 13