REMARK  Name = 116693
REMARK  16 active torsions:
REMARK  status: ('A' for Active; 'I' for Inactive)
REMARK    1  A    between atoms: C_1  and  C_13
REMARK    2  A    between atoms: C_3  and  S_15
REMARK    3  A    between atoms: C_6  and  C_14
REMARK    4  A    between atoms: C_8  and  S_15
REMARK    5  A    between atoms: C_10  and  C_22
REMARK    6  A    between atoms: S_15  and  C_16
REMARK    7  A    between atoms: C_23  and  C_29
REMARK    8  A    between atoms: C_29  and  O_31
REMARK    9  A    between atoms: O_31  and  C_32
REMARK   10  A    between atoms: C_32  and  C_33
REMARK   11  A    between atoms: C_32  and  C_36
REMARK   12  A    between atoms: C_33  and  O_35
REMARK   13  A    between atoms: C_36  and  C_37
REMARK   14  A    between atoms: C_36  and  O_40
REMARK   15  A    between atoms: O_40  and  C_41
REMARK   16  A    between atoms: C_41  and  C_43
REMARK                            x       y       z     vdW  Elec       q    Type
REMARK                         _______ _______ _______ _____ _____    ______ ____
ROOT
ATOM      4  C   UNL     1       8.813 -19.121   0.000  0.00  0.00    +0.330 C 
ENDROOT
BRANCH   4  18
ATOM     18  C   UNL     1       8.268 -17.723   0.000  0.00  0.00    +0.350 C 
ATOM     21  O   UNL     1       6.785 -17.497   0.000  0.00  0.00    -0.247 OA
BRANCH  18  19
ATOM     19  O   UNL     1       9.206 -16.552   0.000  0.00  0.00    -0.478 OA
ATOM     20  H   UNL     1      10.132 -16.694   0.000  0.00  0.00    +0.295 HD
ENDBRANCH  18  19
ENDBRANCH   4  18
BRANCH   4   3
ATOM      3  O   UNL     1      10.296 -19.347   0.000  0.00  0.00    -0.442 OA
BRANCH   3   2
ATOM      2  C   UNL     1      11.234 -18.176   0.000  0.00  0.00    +0.340 C 
ATOM     22  O   UNL     1      10.689 -16.779   0.000  0.00  0.00    -0.245 OA
BRANCH   2   1
ATOM      1  C   UNL     1      12.717 -18.403   0.000  0.00  0.00    +0.059 A 
ATOM     23  C   UNL     1      11.779 -19.574   0.000  0.00  0.00    +0.015 A 
ATOM     24  C   UNL     1      10.296 -19.347   0.000  0.00  0.00    +0.001 A 
ATOM     25  C   UNL     1       9.751 -17.950   0.000  0.00  0.00    +0.000 A 
ATOM     26  C   UNL     1      10.689 -16.779   0.000  0.00  0.00    +0.001 A 
ATOM     27  C   UNL     1      12.172 -17.006   0.000  0.00  0.00    +0.015 A 
ENDBRANCH   2   1
ENDBRANCH   3   2
ENDBRANCH   4   3
BRANCH   4   5
ATOM      5  C   UNL     1       7.876 -20.291   0.000  0.00  0.00    +0.274 C 
BRANCH   5  15
ATOM     15  C   UNL     1       8.421 -21.689   0.000  0.00  0.00    +0.086 C 
ATOM     16  O   UNL     1       9.904 -21.916   0.000  0.00  0.00    -0.546 OA
ATOM     17  O   UNL     1       7.483 -22.860   0.000  0.00  0.00    -0.546 OA
ENDBRANCH   5  15
BRANCH   5   6
ATOM      6  O   UNL     1       6.393 -20.065   0.000  0.00  0.00    -0.448 OA
BRANCH   6   7
ATOM      7  C   UNL     1       5.673 -21.381   0.000  0.00  0.00    +0.340 C 
ATOM     14  O   UNL     1       6.452 -22.662   0.000  0.00  0.00    -0.245 OA
BRANCH   7   8
ATOM      8  C   UNL     1       4.173 -21.415   0.000  0.00  0.00    +0.059 A 
ATOM      9  C   UNL     1       3.394 -20.134   0.000  0.00  0.00    +0.015 A 
ATOM     10  C   UNL     1       1.894 -20.168   0.000  0.00  0.00    +0.001 A 
ATOM     11  C   UNL     1       1.174 -21.484   0.000  0.00  0.00    +0.000 A 
ATOM     12  C   UNL     1       1.954 -22.765   0.000  0.00  0.00    +0.001 A 
ATOM     13  C   UNL     1       3.453 -22.731   0.000  0.00  0.00    +0.015 A 
ENDBRANCH   7   8
ENDBRANCH   6   7
ENDBRANCH   5   6
ENDBRANCH   4   5
TORSDOF 10