REMARK  Name = 126849
REMARK  5 active torsions:
REMARK  status: ('A' for Active; 'I' for Inactive)
REMARK    1  A    between atoms: N_3  and  C1*_10
REMARK    2  A    between atoms: C2*_11  and  O2*_17
REMARK    3  A    between atoms: C3*_12  and  O3*_15
REMARK    4  A    between atoms: C4*_13  and  C5*_16
REMARK    5  A    between atoms: O5*_14  and  C5*_16
REMARK                            x       y       z     vdW  Elec       q    Type
REMARK                         _______ _______ _______ _____ _____    ______ ____
ROOT
ATOM      1  O4* UNL     1       1.168  -7.632   0.000  0.00  0.00    -0.347 OA
ATOM      2  C4* UNL     1       1.632  -9.058   0.000  0.00  0.00    +0.177 C 
ATOM      6  C3* UNL     1       3.132  -9.058   0.000  0.00  0.00    +0.178 C 
ATOM      9  C2* UNL     1       3.595  -7.632   0.000  0.00  0.00    +0.193 C 
ATOM     12  C1* UNL     1       2.382  -6.750   0.000  0.00  0.00    +0.244 C 
ENDROOT
BRANCH  12  13
ATOM     13  N   UNL     1       2.382  -5.250   0.000  0.00  0.00    -0.249 N 
ATOM     14  C   UNL     1       1.083  -4.500   0.000  0.00  0.00    +0.084 C 
ATOM     15  C   UNL     1       1.083  -3.000   0.000  0.00  0.00    +0.062 C 
ATOM     16  C   UNL     1       2.382  -2.250   0.000  0.00  0.00    +0.166 C 
ATOM     17  C   UNL     1       3.681  -3.000   0.000  0.00  0.00    +0.175 C 
ATOM     18  O   UNL     1       2.382  -0.750   0.000  0.00  0.00    -0.292 OA
ATOM     19  C   UNL     1       3.681  -4.500   0.000  0.00  0.00    +0.229 C 
ATOM     20  O   UNL     1       4.980  -5.250   0.000  0.00  0.00    -0.275 OA
ENDBRANCH  12  13
BRANCH   6   7
ATOM      7  O3* UNL     1       4.013 -10.272   0.000  0.00  0.00    -0.386 OA
ATOM      8  H3* UNL     1       3.619 -11.158   0.000  0.00  0.00    +0.210 HD
ENDBRANCH   6   7
BRANCH   9  10
ATOM     10  O2* UNL     1       5.022  -7.168   0.000  0.00  0.00    -0.385 OA
ATOM     11  H2* UNL     1       5.743  -7.817   0.000  0.00  0.00    +0.210 HD
ENDBRANCH   9  10
BRANCH   2   3
ATOM      3  C5* UNL     1       0.750 -10.272   0.000  0.00  0.00    +0.190 C 
BRANCH   3   4
ATOM      4  O5* UNL     1       1.360 -11.642   0.000  0.00  0.00    -0.392 OA
ATOM      5  H5* UNL     1       0.790 -12.427   0.000  0.00  0.00    +0.210 HD
ENDBRANCH   3   4
ENDBRANCH   2   3
TORSDOF 5