REMARK  Name = 1027
REMARK  4 active torsions:
REMARK  status: ('A' for Active; 'I' for Inactive)
REMARK    1  A    between atoms: C_1  and  C_2
REMARK    2  A    between atoms: C_1  and  C_8
REMARK    3  A    between atoms: C_1  and  C_9
REMARK    4  A    between atoms: C_2  and  C_3
REMARK                            x       y       z     vdW  Elec       q    Type
REMARK                         _______ _______ _______ _____ _____    ______ ____
ROOT
ATOM      5  C   UNL     1       1.574   4.774   0.000  0.00  0.00    +0.173 C 
ATOM      6  O   UNL     1       1.574   6.274   0.000  0.00  0.00    -0.294 OA
ENDROOT
BRANCH   5   1
ATOM      1  C   UNL     1       0.275   4.024   0.000  0.00  0.00    +0.080 C 
ATOM      2  C   UNL     1       0.275   2.525   0.000  0.00  0.00    +0.031 C 
ATOM      3  C   UNL     1      -1.025   4.774   0.000  0.00  0.00    +0.031 C 
ATOM      4 BR   UNL     1      -1.025   3.275   0.000  0.00  0.00    -0.077 Br
ENDBRANCH   5   1
BRANCH   5   7
ATOM      7  C   UNL     1       2.873   4.024   0.000  0.00  0.00    +0.191 C 
ATOM      8 BR   UNL     1       2.873   2.525   0.000  0.00  0.00    -0.068 Br
ATOM      9 BR   UNL     1       4.172   4.774   0.000  0.00  0.00    -0.068 Br
ENDBRANCH   5   7
TORSDOF 2