REMARK  Name = 10447
REMARK  3 active torsions:
REMARK  status: ('A' for Active; 'I' for Inactive)
REMARK    1  A    between atoms: C_3  and  O_18
REMARK    2  A    between atoms: C_4  and  O_19
REMARK    3  A    between atoms: C_14  and  O_17
REMARK                            x       y       z     vdW  Elec       q    Type
REMARK                         _______ _______ _______ _____ _____    ______ ____
ROOT
ATOM      1  O   UNL     1      -5.946  -0.750   0.000  0.00  0.00    -0.286 OA
ATOM      2  C   UNL     1      -5.946  -2.250   0.000  0.00  0.00    +0.198 C 
ATOM      3  C   UNL     1      -7.245  -3.000   0.000  0.00  0.00    +0.033 A 
ATOM      4  C   UNL     1      -8.544  -2.250   0.000  0.00  0.00    +0.012 A 
ATOM      5  C   UNL     1      -9.843  -3.000   0.000  0.00  0.00    +0.001 A 
ATOM      6  C   UNL     1      -9.843  -4.500   0.000  0.00  0.00    +0.001 A 
ATOM      7  C   UNL     1      -8.544  -5.250   0.000  0.00  0.00    +0.012 A 
ATOM      8  C   UNL     1      -7.245  -4.500   0.000  0.00  0.00    +0.033 A 
ATOM      9  C   UNL     1      -5.946  -5.250   0.000  0.00  0.00    +0.198 C 
ATOM     10  C   UNL     1      -4.647  -4.500   0.000  0.00  0.00    +0.078 A 
ATOM     11  C   UNL     1      -3.348  -5.250   0.000  0.00  0.00    +0.132 A 
ATOM     14  C   UNL     1      -2.049  -4.500   0.000  0.00  0.00    +0.095 A 
ATOM     15  C   UNL     1      -2.049  -3.000   0.000  0.00  0.00    +0.162 A 
ATOM     18  C   UNL     1      -3.348  -2.250   0.000  0.00  0.00    +0.170 A 
ATOM     21  O   UNL     1      -5.946  -6.750   0.000  0.00  0.00    -0.286 OA
ATOM     22  C   UNL     1      -4.647  -3.000   0.000  0.00  0.00    +0.082 A 
ENDROOT
BRANCH  11  12
ATOM     12  O   UNL     1      -3.348  -6.750   0.000  0.00  0.00    -0.506 OA
ATOM     13  H   UNL     1      -4.160  -7.218   0.000  0.00  0.00    +0.292 HD
ENDBRANCH  11  12
BRANCH  15  16
ATOM     16  O   UNL     1      -0.750  -2.250   0.000  0.00  0.00    -0.503 OA
ATOM     17  H   UNL     1       0.061  -2.718   0.000  0.00  0.00    +0.292 HD
ENDBRANCH  15  16
BRANCH  18  19
ATOM     19  O   UNL     1      -3.348  -0.750   0.000  0.00  0.00    -0.503 OA
ATOM     20  H   UNL     1      -2.537  -0.281   0.000  0.00  0.00    +0.292 HD
ENDBRANCH  18  19
TORSDOF 3