REMARK  Name = 104117
REMARK  7 active torsions:
REMARK  status: ('A' for Active; 'I' for Inactive)
REMARK    1  A    between atoms: C_3  and  C_20
REMARK    2  A    between atoms: C_4  and  N_9
REMARK    3  A    between atoms: N_9  and  C_18
REMARK    4  A    between atoms: N_9  and  C_19
REMARK    5  A    between atoms: C_12  and  C_21
REMARK    6  A    between atoms: C_16  and  C_19
REMARK    7  A    between atoms: C_17  and  C_18
REMARK                            x       y       z     vdW  Elec       q    Type
REMARK                         _______ _______ _______ _____ _____    ______ ____
ROOT
ATOM      1  C   UNL     1       6.810   2.695   0.000  0.00  0.00    +0.010 A 
ATOM      2  C   UNL     1       7.560   3.994   0.000  0.00  0.00    -0.023 A 
ATOM     16  C   UNL     1       9.060   3.994   0.000  0.00  0.00    +0.010 A 
ATOM     17  C   UNL     1       9.810   2.695   0.000  0.00  0.00    +0.024 A 
ATOM     18  C   UNL     1       9.060   1.396   0.000  0.00  0.00    +0.030 A 
ATOM     26  C   UNL     1       7.560   1.396   0.000  0.00  0.00    +0.024 A 
ENDROOT
BRANCH   2   3
ATOM      3  C   UNL     1       6.810   5.293   0.000  0.00  0.00    +0.043 C 
ATOM      4  C   UNL     1       7.560   6.592   0.000  0.00  0.00    +0.152 C 
ATOM      5  C   UNL     1       6.950   7.963   0.000  0.00  0.00    +0.364 C 
ATOM      6  O   UNL     1       5.482   8.275   0.000  0.00  0.00    -0.243 OA
ATOM      7  O   UNL     1       8.065   8.966   0.000  0.00  0.00    -0.402 OA
ATOM      8  C   UNL     1       9.364   8.216   0.000  0.00  0.00    +0.232 C 
ATOM     15  N   UNL     1       9.052   6.749   0.000  0.00  0.00    -0.205 NA
BRANCH   8   9
ATOM      9  C   UNL     1      10.734   8.827   0.000  0.00  0.00    +0.037 A 
ATOM     10  C   UNL     1      11.947   7.945   0.000  0.00  0.00    +0.013 A 
ATOM     11  C   UNL     1      13.318   8.555   0.000  0.00  0.00    +0.001 A 
ATOM     12  C   UNL     1      13.475  10.047   0.000  0.00  0.00    +0.000 A 
ATOM     13  C   UNL     1      12.261  10.929   0.000  0.00  0.00    +0.001 A 
ATOM     14  C   UNL     1      10.891  10.318   0.000  0.00  0.00    +0.013 A 
ENDBRANCH   8   9
ENDBRANCH   2   3
BRANCH  18  19
ATOM     19  N   UNL     1       9.810   0.097   0.000  0.00  0.00    -0.328 N 
BRANCH  19  20
ATOM     20  C   UNL     1       9.060  -1.202   0.000  0.00  0.00    +0.121 C 
BRANCH  20  21
ATOM     21  C   UNL     1       9.810  -2.501   0.000  0.00  0.00    +0.127 C 
ATOM     22 CL   UNL     1       9.060  -3.800   0.000  0.00  0.00    -0.124 Cl
ENDBRANCH  20  21
ENDBRANCH  19  20
BRANCH  19  23
ATOM     23  C   UNL     1      11.310   0.097   0.000  0.00  0.00    +0.121 C 
BRANCH  23  24
ATOM     24  C   UNL     1      12.060  -1.202   0.000  0.00  0.00    +0.127 C 
ATOM     25 CL   UNL     1      11.310  -2.501   0.000  0.00  0.00    -0.124 Cl
ENDBRANCH  23  24
ENDBRANCH  19  23
ENDBRANCH  18  19
TORSDOF 7