REMARK  Name = 1026
REMARK  3 active torsions:
REMARK  status: ('A' for Active; 'I' for Inactive)
REMARK    1  A    between atoms: C_3  and  N_6
REMARK    2  A    between atoms: C_3  and  C_7
REMARK    3  A    between atoms: C_7  and  O_9
REMARK                            x       y       z     vdW  Elec       q    Type
REMARK                         _______ _______ _______ _____ _____    ______ ____
ROOT
ATOM      1  C   UNL     1      -3.737  -2.003   0.000  0.00  0.00    +0.033 C 
ATOM      2  C   UNL     1      -2.523  -2.885   0.000  0.00  0.00    +0.115 C 
ATOM     10  C   UNL     1      -2.987  -4.311   0.000  0.00  0.00    +0.033 C 
ATOM     11  C   UNL     1      -4.487  -4.311   0.000  0.00  0.00    +0.002 C 
ATOM     12  C   UNL     1      -4.950  -2.885   0.000  0.00  0.00    +0.002 C 
ENDROOT
BRANCH   2   7
ATOM      7  N   UNL     1      -1.773  -1.585   0.000  0.00  0.00    -0.316 NA
ATOM      8  H   UNL     1      -2.283  -0.702   0.000  0.00  0.00    +0.119 HD
ATOM      9  H   UNL     1      -0.753  -1.586   0.000  0.00  0.00    +0.119 HD
ENDBRANCH   2   7
BRANCH   2   3
ATOM      3  C   UNL     1      -1.153  -3.495   0.000  0.00  0.00    +0.325 C 
ATOM      6  O   UNL     1       0.060  -2.613   0.000  0.00  0.00    -0.249 OA
BRANCH   3   4
ATOM      4  O   UNL     1      -0.996  -4.986   0.000  0.00  0.00    -0.479 OA
ATOM      5  H   UNL     1      -1.754  -5.537   0.000  0.00  0.00    +0.295 HD
ENDBRANCH   3   4
ENDBRANCH   2   3
TORSDOF 3