REMARK  Name = 107415
REMARK  0 active torsions:
REMARK  status: ('A' for Active; 'I' for Inactive)
REMARK                            x       y       z     vdW  Elec       q    Type
REMARK                         _______ _______ _______ _____ _____    ______ ____
ROOT
ATOM      1  N   UNL     1       4.767   0.419   0.000  0.00  0.00    -0.289 NA
ATOM      2  C   UNL     1       5.079  -1.048   0.000  0.00  0.00    +0.084 C 
ATOM      3  C   UNL     1       5.960  -2.575   0.000  0.00  0.00    -0.008 C 
ATOM      4  C   UNL     1       7.452  -2.418   0.000  0.00  0.00    +0.005 C 
ATOM      5  C   UNL     1       8.062  -1.048   0.000  0.00  0.00    +0.004 C 
ATOM      6  C   UNL     1       7.181   0.165   0.000  0.00  0.00    +0.156 C 
ATOM      7  O   UNL     1       8.062   1.379   0.000  0.00  0.00    -0.449 OA
ATOM      8  C   UNL     1       9.489   0.915   0.000  0.00  0.00    +0.333 C 
ATOM      9  O   UNL     1      10.703   1.797   0.000  0.00  0.00    -0.246 OA
ATOM     10  C   UNL     1       9.489  -0.585   0.000  0.00  0.00    +0.099 C 
ATOM     11  C   UNL     1       6.571  -1.205   0.000  0.00  0.00    +0.077 C 
ATOM     12  C   UNL     1       3.468   1.169   0.000  0.00  0.00    +0.085 C 
ATOM     13  C   UNL     1       3.468   2.669   0.000  0.00  0.00    +0.015 C 
ATOM     14  C   UNL     1       4.767   3.419   0.000  0.00  0.00    +0.003 C 
ATOM     15  C   UNL     1       6.066   2.669   0.000  0.00  0.00    +0.023 C 
ATOM     16  C   UNL     1       6.066   1.169   0.000  0.00  0.00    +0.106 C 
ENDROOT
TORSDOF 0