REMARK  Name = 115493
REMARK  33 active torsions:
REMARK  status: ('A' for Active; 'I' for Inactive)
REMARK    1  A    between atoms: C_3  and  C_41
REMARK    2  A    between atoms: C_4  and  C_42
REMARK    3  A    between atoms: C_9  and  O_53
REMARK    4  A    between atoms: C_12  and  C_39
REMARK    5  A    between atoms: C_14  and  O_37
REMARK    6  A    between atoms: C_16  and  O_40
REMARK    7  A    between atoms: C_17  and  O_38
REMARK    8  A    between atoms: C_20  and  C_57
REMARK    9  A    between atoms: C_21  and  C_58
REMARK   10  A    between atoms: C_26  and  O_69
REMARK   11  A    between atoms: C_29  and  C_56
REMARK   12  A    between atoms: C_31  and  O_54
REMARK   13  A    between atoms: C_34  and  O_55
REMARK   14  A    between atoms: C_42  and  C_43
REMARK   15  A    between atoms: C_42  and  O_44
REMARK   16  A    between atoms: C_42  and  C_45
REMARK   17  A    between atoms: C_45  and  O_46
REMARK   18  A    between atoms: C_45  and  C_47
REMARK   19  A    between atoms: C_47  and  C_48
REMARK   20  A    between atoms: C_48  and  C_49
REMARK   21  A    between atoms: C_49  and  C_50
REMARK   22  A    between atoms: C_49  and  C_51
REMARK   23  A    between atoms: C_49  and  O_52
REMARK   24  A    between atoms: C_58  and  C_59
REMARK   25  A    between atoms: C_58  and  O_60
REMARK   26  A    between atoms: C_58  and  C_61
REMARK   27  A    between atoms: C_61  and  O_62
REMARK   28  A    between atoms: C_61  and  C_63
REMARK   29  A    between atoms: C_63  and  C_64
REMARK   30  A    between atoms: C_64  and  C_65
REMARK   31  A    between atoms: C_65  and  C_66
REMARK   32  A    between atoms: C_65  and  C_67
REMARK   33  A    between atoms: C_65  and  O_68
REMARK                            x       y       z     vdW  Elec       q    Type
REMARK                         _______ _______ _______ _____ _____    ______ ____
ROOT
ATOM      1  O   UNL     1      -5.583 -21.079   0.000  0.00  0.00    -0.292 OA
ATOM      2  C   UNL     1      -5.583 -19.579   0.000  0.00  0.00    +0.160 C 
ATOM      3  C   UNL     1      -6.883 -18.829   0.000  0.00  0.00    +0.069 C 
ATOM      4  C   UNL     1      -8.182 -19.579   0.000  0.00  0.00    +0.046 C 
ATOM      5  C   UNL     1      -9.481 -18.829   0.000  0.00  0.00    +0.144 C 
ATOM      8  C   UNL     1      -9.481 -17.329   0.000  0.00  0.00    +0.144 C 
ATOM     11  C   UNL     1      -8.182 -16.579   0.000  0.00  0.00    +0.041 C 
ATOM     12  C   UNL     1      -6.883 -17.329   0.000  0.00  0.00    -0.013 C 
ATOM     13  C   UNL     1      -6.883 -15.829   0.000  0.00  0.00    +0.012 C 
ATOM     14  C   UNL     1      -5.584 -16.579   0.000  0.00  0.00    +0.025 C 
ATOM     15  C   UNL     1      -4.285 -17.329   0.000  0.00  0.00    -0.031 C 
ATOM     16  C   UNL     1      -2.986 -16.579   0.000  0.00  0.00    +0.093 C 
ATOM     19  C   UNL     1      -1.559 -17.042   0.000  0.00  0.00    +0.040 C 
ATOM     20  C   UNL     1      -0.677 -15.829   0.000  0.00  0.00    +0.010 C 
ATOM     21  C   UNL     1      -1.559 -14.615   0.000  0.00  0.00    +0.032 C 
ATOM     36  C   UNL     1      -2.986 -15.079   0.000  0.00  0.00    +0.006 C 
ATOM     37  C   UNL     1      -2.829 -13.587   0.000  0.00  0.00    +0.015 C 
ATOM     38  C   UNL     1      -4.285 -14.329   0.000  0.00  0.00    +0.011 C 
ATOM     39  C   UNL     1      -5.584 -15.079   0.000  0.00  0.00    +0.009 C 
ATOM     40  C   UNL     1      -4.285 -18.829   0.000  0.00  0.00    +0.049 C 
ENDROOT
BRANCH   5   6
ATOM      6  O   UNL     1     -10.780 -19.579   0.000  0.00  0.00    -0.389 OA
ATOM      7  H   UNL     1     -11.620 -19.094   0.000  0.00  0.00    +0.210 HD
ENDBRANCH   5   6
BRANCH   8   9
ATOM      9  O   UNL     1     -10.780 -16.579   0.000  0.00  0.00    -0.389 OA
ATOM     10  H   UNL     1     -10.780 -15.609   0.000  0.00  0.00    +0.210 HD
ENDBRANCH   8   9
BRANCH  16  17
ATOM     17  O   UNL     1      -2.829 -18.070   0.000  0.00  0.00    -0.384 OA
ATOM     18  H   UNL     1      -3.613 -18.640   0.000  0.00  0.00    +0.211 HD
ENDBRANCH  16  17
BRANCH  21  22
ATOM     22  C   UNL     1      -1.095 -13.188   0.000  0.00  0.00    +0.092 C 
ATOM     35  C   UNL     1      -2.522 -12.725   0.000  0.00  0.00    +0.044 C 
BRANCH  22  33
ATOM     33  O   UNL     1      -0.632 -11.762   0.000  0.00  0.00    -0.386 OA
ATOM     34  H   UNL     1       0.317 -11.560   0.000  0.00  0.00    +0.210 HD
ENDBRANCH  22  33
BRANCH  22  23
ATOM     23  C   UNL     1       0.331 -13.652   0.000  0.00  0.00    +0.146 C 
BRANCH  23  31
ATOM     31  O   UNL     1       1.446 -12.648   0.000  0.00  0.00    -0.389 OA
ATOM     32  H   UNL     1       2.368 -12.948   0.000  0.00  0.00    +0.210 HD
ENDBRANCH  23  31
BRANCH  23  24
ATOM     24  C   UNL     1       0.643 -15.119   0.000  0.00  0.00    +0.037 C 
BRANCH  24  25
ATOM     25  C   UNL     1       2.070 -15.583   0.000  0.00  0.00    +0.037 C 
BRANCH  25  26
ATOM     26  C   UNL     1       3.184 -14.579   0.000  0.00  0.00    +0.061 C 
ATOM     29  C   UNL     1       4.188 -15.694   0.000  0.00  0.00    +0.041 C 
ATOM     30  C   UNL     1       2.181 -13.464   0.000  0.00  0.00    +0.041 C 
BRANCH  26  27
ATOM     27  O   UNL     1       4.299 -13.575   0.000  0.00  0.00    -0.389 OA
ATOM     28  H   UNL     1       5.222 -13.875   0.000  0.00  0.00    +0.210 HD
ENDBRANCH  26  27
ENDBRANCH  25  26
ENDBRANCH  24  25
ENDBRANCH  23  24
ENDBRANCH  22  23
ENDBRANCH  21  22
TORSDOF 11