REMARK  Name = 119875
REMARK  2 active torsions:
REMARK  status: ('A' for Active; 'I' for Inactive)
REMARK    1  A    between atoms: PT_2  and  N_4
REMARK    2  A    between atoms: PT_2  and  N_5
REMARK                            x       y       z     vdW  Elec       q    Type
REMARK                         _______ _______ _______ _____ _____    ______ ____
ROOT
ATOM      1 CL   UNL     1       1.031  -1.090   0.000  0.00  0.00    +0.000 Cl
ATOM      2 PT   UNL     1       0.000   0.000   0.000  0.00  0.00    +0.000 Pt
ATOM      9 CL   UNL     1       1.090   1.031   0.000  0.00  0.00    +0.000 Cl
ENDROOT
BRANCH   2   3
ATOM      3  N   UNL     1      -1.090  -1.031   0.000  0.00  0.00    +0.000 NA
ATOM      4  H   UNL     1      -0.853  -2.023   0.000  0.00  0.00    +0.000 HD
ATOM      5  H   UNL     1      -2.067  -0.740   0.000  0.00  0.00    +0.000 HD
ENDBRANCH   2   3
BRANCH   2   6
ATOM      6  N   UNL     1      -1.031   1.090   0.000  0.00  0.00    +0.000 NA
ATOM      7  H   UNL     1      -2.023   0.853   0.000  0.00  0.00    +0.000 HD
ATOM      8  H   UNL     1      -0.740   2.067   0.000  0.00  0.00    +0.000 HD
ENDBRANCH   2   6
TORSDOF 2