REMARK  Name = 115538
REMARK  9 active torsions:
REMARK  status: ('A' for Active; 'I' for Inactive)
REMARK    1  A    between atoms: C_4  and  O_20
REMARK    2  A    between atoms: C_7  and  C_18
REMARK    3  A    between atoms: C_8  and  C_21
REMARK    4  A    between atoms: C_10  and  C_22
REMARK    5  A    between atoms: C_13  and  C_18
REMARK    6  A    between atoms: C_22  and  C_23
REMARK    7  A    between atoms: C_23  and  O_25
REMARK    8  A    between atoms: O_25  and  C_26
REMARK    9  A    between atoms: C_26  and  C_27
REMARK                            x       y       z     vdW  Elec       q    Type
REMARK                         _______ _______ _______ _____ _____    ______ ____
ROOT
ATOM      1  O   UNL     1      -3.522  -5.899   0.000  0.00  0.00    -0.422 OA
ATOM      2  C   UNL     1      -2.223  -6.649   0.000  0.00  0.00    +0.341 A 
ATOM      3  C   UNL     1      -2.223  -8.149   0.000  0.00  0.00    +0.051 A 
ATOM     10  C   UNL     1      -3.522  -8.899   0.000  0.00  0.00    -0.029 A 
ATOM     11  C   UNL     1      -3.522 -10.400   0.000  0.00  0.00    +0.045 C 
ATOM     12  C   UNL     1      -4.821  -8.149   0.000  0.00  0.00    +0.022 A 
ATOM     13  C   UNL     1      -6.120  -8.899   0.000  0.00  0.00    +0.027 A 
ATOM     14  C   UNL     1      -7.419  -8.149   0.000  0.00  0.00    +0.064 A 
ATOM     23  C   UNL     1      -7.419  -6.649   0.000  0.00  0.00    +0.131 A 
ATOM     26  C   UNL     1      -6.120  -5.899   0.000  0.00  0.00    +0.093 A 
ATOM     27  O   UNL     1      -0.924  -5.899   0.000  0.00  0.00    -0.245 OA
ATOM     28  C   UNL     1      -4.821  -6.649   0.000  0.00  0.00    +0.143 A 
ENDROOT
BRANCH  14  15
ATOM     15  C   UNL     1      -8.718  -8.899   0.000  0.00  0.00    +0.197 C 
ATOM     16  O   UNL     1     -10.017  -8.149   0.000  0.00  0.00    -0.287 OA
BRANCH  15  17
ATOM     17  C   UNL     1      -8.718 -10.400   0.000  0.00  0.00    +0.022 A 
ATOM     18  C   UNL     1      -7.419 -11.150   0.000  0.00  0.00    +0.012 A 
ATOM     19  C   UNL     1      -7.419 -12.650   0.000  0.00  0.00    +0.001 A 
ATOM     20  C   UNL     1      -8.718 -13.400   0.000  0.00  0.00    +0.000 A 
ATOM     21  C   UNL     1     -10.017 -12.650   0.000  0.00  0.00    +0.001 A 
ATOM     22  C   UNL     1     -10.017 -11.150   0.000  0.00  0.00    +0.012 A 
ENDBRANCH  15  17
ENDBRANCH  14  15
BRANCH  23  24
ATOM     24  O   UNL     1      -8.718  -5.899   0.000  0.00  0.00    -0.506 OA
ATOM     25  H   UNL     1      -8.718  -4.963   0.000  0.00  0.00    +0.292 HD
ENDBRANCH  23  24
BRANCH   3   4
ATOM      4  C   UNL     1      -0.924  -8.899   0.000  0.00  0.00    +0.163 C 
BRANCH   4   5
ATOM      5  C   UNL     1       0.375  -8.149   0.000  0.00  0.00    +0.312 C 
ATOM      9  O   UNL     1       1.674  -8.899   0.000  0.00  0.00    -0.250 OA
BRANCH   5   6
ATOM      6  O   UNL     1       0.375  -6.649   0.000  0.00  0.00    -0.465 OA
BRANCH   6   7
ATOM      7  C   UNL     1       1.674  -5.899   0.000  0.00  0.00    +0.229 C 
ATOM      8  C   UNL     1       2.973  -6.649   0.000  0.00  0.00    +0.048 C 
ENDBRANCH   6   7
ENDBRANCH   5   6
ENDBRANCH   4   5
ENDBRANCH   3   4
TORSDOF 7