REMARK  Name = 104129
REMARK  8 active torsions:
REMARK  status: ('A' for Active; 'I' for Inactive)
REMARK    1  A    between atoms: N_3  and  C_9
REMARK    2  A    between atoms: C_11  and  C_25
REMARK    3  A    between atoms: C_14  and  C_26
REMARK    4  A    between atoms: C_14  and  C_27
REMARK    5  A    between atoms: C_16  and  C_22
REMARK    6  A    between atoms: C_22  and  C_23
REMARK    7  A    between atoms: C_23  and  C_24
REMARK    8  A    between atoms: C_24  and  C_25
REMARK                            x       y       z     vdW  Elec       q    Type
REMARK                         _______ _______ _______ _____ _____    ______ ____
ROOT
ATOM      1 CL   UNL     1       9.333   3.415   0.000  0.00  0.00    -0.145 Cl
ATOM      2  H   UNL     1      10.663   3.415   0.000  0.00  0.00    +0.145 HD
ENDROOT
TORSDOF 0