REMARK  Name = 100856
REMARK  7 active torsions:
REMARK  status: ('A' for Active; 'I' for Inactive)
REMARK    1  A    between atoms: O_3  and  C_11
REMARK    2  A    between atoms: O_3  and  C_25
REMARK    3  A    between atoms: C_6  and  N_23
REMARK    4  A    between atoms: C_12  and  C_27
REMARK    5  A    between atoms: C_13  and  C_15
REMARK    6  A    between atoms: C_25  and  C_26
REMARK    7  A    between atoms: C_26  and  C_27
REMARK                            x       y       z     vdW  Elec       q    Type
REMARK                         _______ _______ _______ _____ _____    ______ ____
ROOT
ATOM      1 CL   UNL     1       7.245   9.000   0.000  0.00  0.00    -0.145 Cl
ATOM      2  H   UNL     1       8.575   9.000   0.000  0.00  0.00    +0.145 HD
ENDROOT
TORSDOF 0