REMARK  Name = 118030
REMARK  5 active torsions:
REMARK  status: ('A' for Active; 'I' for Inactive)
REMARK    1  A    between atoms: C_1  and  N_2
REMARK    2  A    between atoms: SN_9  and  C_14
REMARK    3  A    between atoms: SN_9  and  C_15
REMARK    4  A    between atoms: C_16  and  C_22
REMARK    5  A    between atoms: C_17  and  C_23
REMARK                            x       y       z     vdW  Elec       q    Type
REMARK                         _______ _______ _______ _____ _____    ______ ____
ROOT
ATOM      1  C   UNL     1      -5.946  -8.958   0.000  0.00  0.00    +0.000 C 
ATOM      2  N   UNL     1      -5.946  -7.458   0.000  0.00  0.00    +0.000 N 
ATOM      3  C   UNL     1      -4.647  -6.708   0.000  0.00  0.00    +0.000 A 
ATOM      4  C   UNL     1      -3.348  -7.458   0.000  0.00  0.00    +0.000 A 
ATOM      5  C   UNL     1      -2.049  -6.708   0.000  0.00  0.00    +0.000 A 
ATOM      6  C   UNL     1      -2.049  -5.208   0.000  0.00  0.00    +0.000 A 
ATOM      7  C   UNL     1      -0.750  -4.458   0.000  0.00  0.00    +0.000 C 
ATOM      8  C   UNL     1      -3.348  -4.458   0.000  0.00  0.00    +0.000 A 
ATOM      9  C   UNL     1      -4.647  -5.208   0.000  0.00  0.00    +0.000 A 
ATOM     10 SN   UNL     1      -5.946  -4.458   0.000  0.00  0.00    +0.000 Sn
ATOM     23  C   UNL     1      -7.245  -5.208   0.000  0.00  0.00    +0.000 A 
ATOM     24  C   UNL     1      -8.544  -4.458   0.000  0.00  0.00    +0.000 A 
ATOM     25  C   UNL     1      -9.843  -5.208   0.000  0.00  0.00    +0.000 A 
ATOM     26  C   UNL     1      -9.843  -6.708   0.000  0.00  0.00    +0.000 A 
ATOM     27  C   UNL     1      -8.544  -7.458   0.000  0.00  0.00    +0.000 A 
ATOM     28  C   UNL     1     -11.142  -4.458   0.000  0.00  0.00    +0.000 C 
ATOM     29  C   UNL     1      -7.245  -6.708   0.000  0.00  0.00    +0.000 A 
ENDROOT
BRANCH  10  11
ATOM     11  C   UNL     1      -4.982  -3.309   0.000  0.00  0.00    +0.000 A 
ATOM     12  C   UNL     1      -3.505  -3.569   0.000  0.00  0.00    +0.000 A 
ATOM     13  C   UNL     1      -2.541  -2.420   0.000  0.00  0.00    +0.000 A 
ATOM     14  C   UNL     1      -3.054  -1.011   0.000  0.00  0.00    +0.000 A 
ATOM     15  C   UNL     1      -4.531  -0.750   0.000  0.00  0.00    +0.000 A 
ATOM     16  C   UNL     1      -5.495  -1.899   0.000  0.00  0.00    +0.000 A 
ENDBRANCH  10  11
BRANCH  10  17
ATOM     17  C   UNL     1      -6.910  -3.309   0.000  0.00  0.00    +0.000 A 
ATOM     18  C   UNL     1      -6.397  -1.899   0.000  0.00  0.00    +0.000 A 
ATOM     19  C   UNL     1      -7.362  -0.750   0.000  0.00  0.00    +0.000 A 
ATOM     20  C   UNL     1      -8.839  -1.011   0.000  0.00  0.00    +0.000 A 
ATOM     21  C   UNL     1      -9.352  -2.420   0.000  0.00  0.00    +0.000 A 
ATOM     22  C   UNL     1      -8.387  -3.569   0.000  0.00  0.00    +0.000 A 
ENDBRANCH  10  17
TORSDOF 2