REMARK  Name = 106408
REMARK  6 active torsions:
REMARK  status: ('A' for Active; 'I' for Inactive)
REMARK    1  A    between atoms: C_6  and  O_19
REMARK    2  A    between atoms: C_8  and  C_18
REMARK    3  A    between atoms: C_13  and  O_20
REMARK    4  A    between atoms: C_16  and  C_22
REMARK    5  A    between atoms: O_20  and  C_21
REMARK    6  A    between atoms: C_23  and  C_24
REMARK                            x       y       z     vdW  Elec       q    Type
REMARK                         _______ _______ _______ _____ _____    ______ ____
ROOT
ATOM      1  H   UNL     1      -3.491 -10.835   0.000  0.00  0.00    +0.149 HD
ATOM      2  N   UNL     1      -2.008 -10.611   0.000  0.00  0.00    -0.314 N 
ATOM      3  C   UNL     1      -1.566  -9.178   0.000  0.00  0.00    +0.224 C 
ATOM      6  C   UNL     1      -0.170  -8.630   0.000  0.00  0.00    +0.132 C 
ATOM      7  C   UNL     1       0.142  -7.162   0.000  0.00  0.00    +0.063 C 
ATOM      8  C   UNL     1       1.634  -7.006   0.000  0.00  0.00    -0.031 C 
ATOM     16  C   UNL     1       2.244  -8.376   0.000  0.00  0.00    +0.082 C 
ATOM     17  N   UNL     1       1.129  -9.380   0.000  0.00  0.00    -0.266 N 
ATOM     18  C   UNL     1       1.353 -10.863   0.000  0.00  0.00    +0.253 C 
ATOM     19  C   UNL     1       0.333 -11.962   0.000  0.00  0.00    +0.062 A 
ATOM     20  C   UNL     1       0.984 -13.314   0.000  0.00  0.00    +0.015 A 
ATOM     21  C   UNL     1       0.139 -14.553   0.000  0.00  0.00    +0.008 A 
ATOM     22  C   UNL     1      -1.357 -14.441   0.000  0.00  0.00    -0.007 A 
ATOM     23  C   UNL     1      -2.202 -15.681   0.000  0.00  0.00    +0.047 C 
ATOM     24  C   UNL     1      -2.008 -13.090   0.000  0.00  0.00    +0.141 A 
ATOM     27  O   UNL     1       2.786 -11.305   0.000  0.00  0.00    -0.270 OA
ATOM     28  C   UNL     1      -1.163 -11.850   0.000  0.00  0.00    +0.084 A 
ENDROOT
BRANCH   3   4
ATOM      4  O   UNL     1      -2.666  -8.157   0.000  0.00  0.00    -0.360 OA
ATOM      5  C   UNL     1      -4.099  -8.600   0.000  0.00  0.00    +0.196 C 
ENDBRANCH   3   4
BRANCH   8   9
ATOM      9  C   UNL     1       2.384  -5.707   0.000  0.00  0.00    +0.010 C 
ATOM     10  C   UNL     1       3.884  -5.707   0.000  0.00  0.00    +0.067 C 
BRANCH  10  11
ATOM     11  C   UNL     1       4.634  -4.407   0.000  0.00  0.00    +0.234 C 
ATOM     12  N   UNL     1       3.884  -3.108   0.000  0.00  0.00    -0.326 N 
ATOM     13  H   UNL     1       2.900  -3.109   0.000  0.00  0.00    +0.145 HD
ATOM     14  H   UNL     1       4.376  -2.256   0.000  0.00  0.00    +0.145 HD
ATOM     15  O   UNL     1       6.134  -4.407   0.000  0.00  0.00    -0.271 OA
ENDBRANCH  10  11
ENDBRANCH   8   9
BRANCH  24  25
ATOM     25  O   UNL     1      -3.504 -12.978   0.000  0.00  0.00    -0.505 OA
ATOM     26  H   UNL     1      -3.910 -12.133   0.000  0.00  0.00    +0.292 HD
ENDBRANCH  24  25
TORSDOF 4