REMARK  Name = 105808
REMARK  1 active torsions:
REMARK  status: ('A' for Active; 'I' for Inactive)
REMARK    1  A    between atoms: C_9  and  N_14
REMARK                            x       y       z     vdW  Elec       q    Type
REMARK                         _______ _______ _______ _____ _____    ______ ____
ROOT
ATOM      1 BR   UNL     1      -8.319  -2.250   0.000  0.00  0.00    -0.044 Br
ATOM      2  C   UNL     1      -7.021  -3.000   0.000  0.00  0.00    +0.091 C 
ATOM      3  C   UNL     1      -7.021  -4.500   0.000  0.00  0.00    +0.090 C 
ATOM      7  C   UNL     1      -5.721  -5.250   0.000  0.00  0.00    +0.210 C 
ATOM      8  C   UNL     1      -4.422  -4.500   0.000  0.00  0.00    +0.053 A 
ATOM      9  C   UNL     1      -3.123  -5.250   0.000  0.00  0.00    +0.015 A 
ATOM     10  C   UNL     1      -1.824  -4.500   0.000  0.00  0.00    +0.020 A 
ATOM     11  C   UNL     1      -1.824  -3.000   0.000  0.00  0.00    +0.111 A 
ATOM     12  N   UNL     1      -3.123  -2.250   0.000  0.00  0.00    -0.251 NA
ATOM     13  C   UNL     1      -4.422  -3.000   0.000  0.00  0.00    +0.122 A 
ATOM     14  O   UNL     1      -5.721  -6.750   0.000  0.00  0.00    -0.285 OA
ATOM     15  C   UNL     1      -5.721  -2.250   0.000  0.00  0.00    +0.221 C 
ATOM     16  O   UNL     1      -5.721  -0.750   0.000  0.00  0.00    -0.284 OA
ENDROOT
BRANCH   3   4
ATOM      4  N   UNL     1      -8.319  -5.250   0.000  0.00  0.00    -0.354 N 
ATOM      5  H   UNL     1      -8.319  -6.234   0.000  0.00  0.00    +0.142 HD
ATOM      6  H   UNL     1      -9.172  -4.758   0.000  0.00  0.00    +0.142 HD
ENDBRANCH   3   4
TORSDOF 1