REMARK  Name = 29874
REMARK  5 active torsions:
REMARK  status: ('A' for Active; 'I' for Inactive)
REMARK    1  A    between atoms: C_1  and  C_8
REMARK    2  A    between atoms: C_1  and  O_13
REMARK    3  A    between atoms: C_6  and  C_7
REMARK    4  A    between atoms: C_8  and  N_9
REMARK    5  A    between atoms: C_10  and  C_12
REMARK                            x       y       z     vdW  Elec       q    Type
REMARK                         _______ _______ _______ _____ _____    ______ ____
ROOT
ATOM      1  C   UNL     1       0.135   5.288   0.000  0.00  0.00    +0.082 C 
ATOM     10  C   UNL     1       0.135   3.788   0.000  0.00  0.00    +0.039 C 
ATOM     11  C   UNL     1      -1.164   3.038   0.000  0.00  0.00    -0.011 C 
ATOM     12  C   UNL     1      -1.164   1.538   0.000  0.00  0.00    +0.007 C 
ATOM     13  C   UNL     1      -2.463   3.788   0.000  0.00  0.00    +0.003 C 
ATOM     14  C   UNL     1      -2.463   5.288   0.000  0.00  0.00    +0.003 C 
ATOM     15  C   UNL     1      -1.164   6.038   0.000  0.00  0.00    +0.036 C 
ENDROOT
BRANCH   1   2
ATOM      2  O   UNL     1       1.612   5.028   0.000  0.00  0.00    -0.387 OA
ATOM      3  H   UNL     1       1.944   4.116   0.000  0.00  0.00    +0.210 HD
ENDBRANCH   1   2
BRANCH   1   4
ATOM      4  C   UNL     1       0.648   6.698   0.000  0.00  0.00    +0.138 C 
BRANCH   4   5
ATOM      5  N   UNL     1       2.125   6.958   0.000  0.00  0.00    -0.313 N 
ATOM      6  H   UNL     1       2.758   6.204   0.000  0.00  0.00    +0.149 HD
ATOM      7  C   UNL     1       2.638   8.368   0.000  0.00  0.00    +0.210 C 
ATOM      8  C   UNL     1       1.674   9.517   0.000  0.00  0.00    +0.109 C 
ATOM      9  O   UNL     1       4.115   8.628   0.000  0.00  0.00    -0.276 OA
ENDBRANCH   4   5
ENDBRANCH   1   4
TORSDOF 3