REMARK  Name = 294756
REMARK  5 active torsions:
REMARK  status: ('A' for Active; 'I' for Inactive)
REMARK    1  A    between atoms: S_1  and  C_2
REMARK    2  A    between atoms: S_1  and  C_21
REMARK    3  A    between atoms: C_5  and  C_7
REMARK    4  A    between atoms: C_6  and  N_22
REMARK    5  A    between atoms: C_15  and  C_21
REMARK                            x       y       z     vdW  Elec       q    Type
REMARK                         _______ _______ _______ _____ _____    ______ ____
ROOT
ATOM      9  C   UNL     1      -9.020   0.351   0.000  0.00  0.00    +0.138 A 
ATOM     10  S   UNL     1      -8.708  -1.116   0.000  0.00  0.00    -0.054 S 
ATOM     11  C   UNL     1      -7.216  -1.273   0.000  0.00  0.00    +0.116 A 
ATOM     20  C   UNL     1      -6.606   0.097   0.000  0.00  0.00    +0.137 A 
ATOM     24  N   UNL     1      -7.721   1.101   0.000  0.00  0.00    -0.218 NA
ENDROOT
BRANCH  11  12
ATOM     12  C   UNL     1      -6.466  -2.572   0.000  0.00  0.00    +0.257 C 
ATOM     13  O   UNL     1      -7.216  -3.871   0.000  0.00  0.00    -0.269 OA
ATOM     14  N   UNL     1      -4.966  -2.572   0.000  0.00  0.00    -0.297 N 
ATOM     15  C   UNL     1      -4.216  -3.871   0.000  0.00  0.00    +0.108 C 
ATOM     16  C   UNL     1      -2.716  -3.871   0.000  0.00  0.00    +0.019 C 
ATOM     17  C   UNL     1      -1.966  -2.572   0.000  0.00  0.00    +0.003 C 
ATOM     18  C   UNL     1      -2.716  -1.273   0.000  0.00  0.00    +0.019 C 
ATOM     19  C   UNL     1      -4.216  -1.273   0.000  0.00  0.00    +0.108 C 
ENDBRANCH  11  12
BRANCH  20  21
ATOM     21  N   UNL     1      -5.139   0.409   0.000  0.00  0.00    -0.342 N 
ATOM     22  H   UNL     1      -4.835   1.345   0.000  0.00  0.00    +0.144 HD
ATOM     23  H   UNL     1      -4.480  -0.323   0.000  0.00  0.00    +0.144 HD
ENDBRANCH  20  21
BRANCH   9   1
ATOM      1  S   UNL     1     -10.390   0.961   0.000  0.00  0.00    -0.094 S 
BRANCH   1   2
ATOM      2  C   UNL     1     -10.602   2.975   0.000  0.00  0.00    +0.111 C 
BRANCH   2   3
ATOM      3  C   UNL     1      -8.963   4.165   0.000  0.00  0.00    -0.037 A 
ATOM      4  C   UNL     1     -10.334   4.775   0.000  0.00  0.00    +0.004 A 
ATOM      5  C   UNL     1     -11.547   3.894   0.000  0.00  0.00    +0.000 A 
ATOM      6  C   UNL     1     -11.391   2.402   0.000  0.00  0.00    +0.000 A 
ATOM      7  C   UNL     1     -10.020   1.792   0.000  0.00  0.00    +0.000 A 
ATOM      8  C   UNL     1      -8.807   2.673   0.000  0.00  0.00    +0.004 A 
ENDBRANCH   2   3
ENDBRANCH   1   2
ENDBRANCH   9   1
TORSDOF 5