REMARK  Name = 293962
REMARK  6 active torsions:
REMARK  status: ('A' for Active; 'I' for Inactive)
REMARK    1  A    between atoms: C_7  and  S_9
REMARK    2  A    between atoms: S_9  and  N_10
REMARK    3  A    between atoms: N_11  and  C_22
REMARK    4  A    between atoms: C_12  and  N_16
REMARK    5  A    between atoms: N_21  and  C_23
REMARK    6  A    between atoms: C_23  and  C_24
REMARK                            x       y       z     vdW  Elec       q    Type
REMARK                         _______ _______ _______ _____ _____    ______ ____
ROOT
ATOM      1  N   UNL     1      -6.822  -4.805   0.000  0.00  0.00    -0.261 NA
ATOM      2  C   UNL     1      -6.822  -6.305   0.000  0.00  0.00    +0.141 A 
ATOM      3  C   UNL     1      -5.523  -7.055   0.000  0.00  0.00    +0.144 A 
ATOM     14  C   UNL     1      -4.224  -6.305   0.000  0.00  0.00    +0.059 A 
ATOM     24  C   UNL     1      -4.224  -4.805   0.000  0.00  0.00    +0.045 A 
ATOM     25  C   UNL     1      -5.523  -4.055   0.000  0.00  0.00    +0.112 A 
ENDROOT
BRANCH  14  15
ATOM     15  N   UNL     1      -2.925  -7.055   0.000  0.00  0.00    -0.326 N 
ATOM     16  C   UNL     1      -2.925  -8.555   0.000  0.00  0.00    +0.120 C 
ATOM     17  C   UNL     1      -1.626  -9.305   0.000  0.00  0.00    +0.103 C 
ATOM     18  N   UNL     1      -0.327  -8.555   0.000  0.00  0.00    -0.296 NA
ATOM     22  C   UNL     1      -0.327  -7.055   0.000  0.00  0.00    +0.103 C 
ATOM     23  C   UNL     1      -1.626  -6.305   0.000  0.00  0.00    +0.120 C 
BRANCH  18  19
ATOM     19  C   UNL     1       0.972  -9.305   0.000  0.00  0.00    +0.111 C 
BRANCH  19  20
ATOM     20  C   UNL     1       2.272  -8.555   0.000  0.00  0.00    -0.019 C 
ATOM     21  C   UNL     1       2.272  -7.055   0.000  0.00  0.00    +0.005 C 
ENDBRANCH  19  20
ENDBRANCH  18  19
ENDBRANCH  14  15
BRANCH   3   4
ATOM      4  S   UNL     1      -5.523  -8.555   0.000  0.00  0.00    +0.064 S 
ATOM     12  O   UNL     1      -4.023  -8.555   0.000  0.00  0.00    -0.153 OA
ATOM     13  O   UNL     1      -7.023  -8.555   0.000  0.00  0.00    -0.153 OA
BRANCH   4   5
ATOM      5  N   UNL     1      -5.523 -10.055   0.000  0.00  0.00    -0.174 NA
ATOM      6  C   UNL     1      -4.224 -10.805   0.000  0.00  0.00    +0.125 C 
ATOM      7  C   UNL     1      -4.224 -12.305   0.000  0.00  0.00    +0.101 C 
ATOM      8  N   UNL     1      -5.523 -13.055   0.000  0.00  0.00    -0.303 NA
ATOM      9  C   UNL     1      -5.523 -14.555   0.000  0.00  0.00    +0.105 C 
ATOM     10  C   UNL     1      -6.822 -12.305   0.000  0.00  0.00    +0.101 C 
ATOM     11  C   UNL     1      -6.822 -10.805   0.000  0.00  0.00    +0.125 C 
ENDBRANCH   4   5
ENDBRANCH   3   4
TORSDOF 5