REMARK  Name = 289090
REMARK  2 active torsions:
REMARK  status: ('A' for Active; 'I' for Inactive)
REMARK    1  A    between atoms: C_2  and  N_3
REMARK    2  A    between atoms: C_9  and  C_10
REMARK                            x       y       z     vdW  Elec       q    Type
REMARK                         _______ _______ _______ _____ _____    ______ ____
ROOT
ATOM      3  N   UNL     1       0.750   3.348   0.000  0.00  0.00    -0.166 NA
ATOM      4  C   UNL     1       1.500   2.049   0.000  0.00  0.00    +0.197 C 
ATOM      5  N   UNL     1       3.000   2.049   0.000  0.00  0.00    -0.316 N 
ATOM      6  C   UNL     1       3.750   0.750   0.000  0.00  0.00    +0.111 C 
ATOM      7  C   UNL     1       5.250   0.750   0.000  0.00  0.00    +0.054 C 
ATOM      8  C   UNL     1       6.000   2.049   0.000  0.00  0.00    -0.041 C 
ATOM     16  C   UNL     1       5.250   3.348   0.000  0.00  0.00    -0.004 C 
ATOM     17  C   UNL     1       3.750   3.348   0.000  0.00  0.00    +0.133 C 
ENDROOT
BRANCH   8   9
ATOM      9  C   UNL     1       7.500   2.049   0.000  0.00  0.00    -0.022 A 
ATOM     10  C   UNL     1       8.250   0.750   0.000  0.00  0.00    +0.009 A 
ATOM     11  C   UNL     1       9.750   0.750   0.000  0.00  0.00    +0.020 A 
ATOM     12  C   UNL     1      10.500   2.049   0.000  0.00  0.00    +0.041 A 
ATOM     13 CL   UNL     1      12.000   2.049   0.000  0.00  0.00    -0.084 Cl
ATOM     14  C   UNL     1       9.750   3.348   0.000  0.00  0.00    +0.020 A 
ATOM     15  C   UNL     1       8.250   3.348   0.000  0.00  0.00    +0.009 A 
ENDBRANCH   8   9
BRANCH   3   2
ATOM      1  N   UNL     1      -2.250   3.348   0.000  0.00  0.00    -0.169 NA
ATOM      2  C   UNL     1      -0.750   3.348   0.000  0.00  0.00    +0.206 C 
ENDBRANCH   3   2
TORSDOF 2