REMARK  Name = 29200
REMARK  5 active torsions:
REMARK  status: ('A' for Active; 'I' for Inactive)
REMARK    1  A    between atoms: C_6  and  N_26
REMARK    2  A    between atoms: C_13  and  N_21
REMARK    3  A    between atoms: C_18  and  N_21
REMARK    4  A    between atoms: C_19  and  N_22
REMARK    5  A    between atoms: C_20  and  C_25
REMARK                            x       y       z     vdW  Elec       q    Type
REMARK                         _______ _______ _______ _____ _____    ______ ____
ROOT
ATOM      8  C   UNL     1       5.571  -2.150   0.000  0.00  0.00    +0.206 A 
ATOM      9  C   UNL     1       4.272  -1.400   0.000  0.00  0.00    +0.333 A 
ATOM     13  C   UNL     1       2.973  -2.150   0.000  0.00  0.00    +0.122 A 
ATOM     14  C   UNL     1       1.674  -1.400   0.000  0.00  0.00    +0.073 C 
ATOM     15  N   UNL     1       2.973  -3.650   0.000  0.00  0.00    -0.213 NA
ATOM     16  C   UNL     1       4.272  -4.399   0.000  0.00  0.00    +0.222 A 
ATOM     17  N   UNL     1       4.272  -5.899   0.000  0.00  0.00    -0.284 N 
ATOM     18  H   UNL     1       3.420  -6.392   0.000  0.00  0.00    +0.155 HD
ATOM     26  N   UNL     1       5.571  -3.650   0.000  0.00  0.00    -0.192 NA
ENDROOT
BRANCH  17  19
ATOM     19  C   UNL     1       5.571  -6.649   0.000  0.00  0.00    +0.034 A 
ATOM     20  C   UNL     1       5.571  -8.149   0.000  0.00  0.00    +0.026 A 
ATOM     21  C   UNL     1       6.870  -8.899   0.000  0.00  0.00    +0.040 A 
ATOM     22  C   UNL     1       8.169  -8.149   0.000  0.00  0.00    +0.124 A 
ATOM     23  C   UNL     1       8.169  -6.649   0.000  0.00  0.00    +0.040 A 
ATOM     24  F   UNL     1       9.468  -8.899   0.000  0.00  0.00    -0.205 F 
ATOM     25  C   UNL     1       6.870  -5.899   0.000  0.00  0.00    +0.026 A 
ENDBRANCH  17  19
BRANCH   9  10
ATOM     10  N   UNL     1       4.272   0.101   0.000  0.00  0.00    +0.085 N 
ATOM     11  O   UNL     1       2.973   0.851   0.000  0.00  0.00    +0.042 OA
ATOM     12  O   UNL     1       5.571   0.851   0.000  0.00  0.00    -0.576 OA
ENDBRANCH   9  10
BRANCH   8   6
ATOM      6  N   UNL     1       6.870  -1.400   0.000  0.00  0.00    -0.294 N 
ATOM      7  H   UNL     1       6.870  -0.415   0.000  0.00  0.00    +0.154 HD
BRANCH   6   5
ATOM      1  F   UNL     1      12.066  -4.399   0.000  0.00  0.00    -0.205 F 
ATOM      2  C   UNL     1      10.767  -3.650   0.000  0.00  0.00    +0.124 A 
ATOM      3  C   UNL     1      10.767  -2.150   0.000  0.00  0.00    +0.040 A 
ATOM      4  C   UNL     1       9.468  -1.400   0.000  0.00  0.00    +0.026 A 
ATOM      5  C   UNL     1       8.169  -2.150   0.000  0.00  0.00    +0.033 A 
ATOM     27  C   UNL     1       8.169  -3.650   0.000  0.00  0.00    +0.026 A 
ATOM     28  C   UNL     1       9.468  -4.399   0.000  0.00  0.00    +0.040 A 
ENDBRANCH   6   5
ENDBRANCH   8   6
TORSDOF 4