REMARK  Name = 290307
REMARK  2 active torsions:
REMARK  status: ('A' for Active; 'I' for Inactive)
REMARK    1  A    between atoms: C_10  and  C_13
REMARK    2  A    between atoms: C_12  and  N_14
REMARK                            x       y       z     vdW  Elec       q    Type
REMARK                         _______ _______ _______ _____ _____    ______ ____
ROOT
ATOM      1  H   UNL     1      -4.197   1.149   0.000  0.00  0.00    +0.149 HD
ATOM      2  N   UNL     1      -3.036   0.199   0.000  0.00  0.00    -0.311 N 
ATOM      3  C   UNL     1      -3.389  -1.259   0.000  0.00  0.00    +0.105 C 
ATOM      4  C   UNL     1      -2.469  -2.444   0.000  0.00  0.00    +0.026 C 
ATOM      5  C   UNL     1      -0.969  -2.463   0.000  0.00  0.00    +0.077 C 
ATOM      6  C   UNL     1      -0.018  -1.302   0.000  0.00  0.00    +0.125 A 
ATOM      7  O   UNL     1       1.474  -1.456   0.000  0.00  0.00    -0.404 OA
ATOM      8  C   UNL     1       2.081  -0.084   0.000  0.00  0.00    +0.441 A 
ATOM     12  C   UNL     1       0.964   0.917   0.000  0.00  0.00    +0.082 A 
ATOM     13  C   UNL     1       1.117   2.409   0.000  0.00  0.00    +0.055 C 
ATOM     14  C   UNL     1      -0.334   0.164   0.000  0.00  0.00    +0.088 A 
ATOM     15  C   UNL     1      -1.677   0.832   0.000  0.00  0.00    +0.248 C 
ATOM     16  O   UNL     1      -1.657   2.332   0.000  0.00  0.00    -0.270 OA
ENDROOT
BRANCH   8   9
ATOM      9  N   UNL     1       3.547   0.231   0.000  0.00  0.00    +0.119 N 
ATOM     10  O   UNL     1       4.553  -0.882   0.000  0.00  0.00    +0.045 OA
ATOM     11  O   UNL     1       4.008   1.658   0.000  0.00  0.00    -0.573 OA
ENDBRANCH   8   9
TORSDOF 1