REMARK  Name = 28837
REMARK  2 active torsions:
REMARK  status: ('A' for Active; 'I' for Inactive)
REMARK    1  A    between atoms: N_1  and  C_11
REMARK    2  A    between atoms: C_11  and  C_12
REMARK                            x       y       z     vdW  Elec       q    Type
REMARK                         _______ _______ _______ _____ _____    ______ ____
ROOT
ATOM      1  N   UNL     1       5.946   3.000   0.000  0.00  0.00    -0.298 NA
ATOM      4  C   UNL     1       5.946   1.500   0.000  0.00  0.00    +0.089 C 
ATOM      5  C   UNL     1       4.647   0.750   0.000  0.00  0.00    +0.051 C 
ATOM      6  C   UNL     1       3.348   1.500   0.000  0.00  0.00    -0.042 A 
ATOM      7  C   UNL     1       2.049   0.750   0.000  0.00  0.00    +0.004 A 
ATOM      8  C   UNL     1       0.750   1.500   0.000  0.00  0.00    +0.000 A 
ATOM      9  C   UNL     1       0.750   3.000   0.000  0.00  0.00    +0.000 A 
ATOM     10  C   UNL     1       2.049   3.750   0.000  0.00  0.00    +0.005 A 
ATOM     11  C   UNL     1       3.348   3.000   0.000  0.00  0.00    -0.030 A 
ATOM     12  C   UNL     1       4.647   3.750   0.000  0.00  0.00    +0.119 C 
ENDROOT
BRANCH   1   2
ATOM      2  C   UNL     1       7.245   3.750   0.000  0.00  0.00    +0.081 C 
ATOM      3  C   UNL     1       8.544   3.000   0.000  0.00  0.00    +0.020 C 
ENDBRANCH   1   2
TORSDOF 1