REMARK  Name = 294625
REMARK  4 active torsions:
REMARK  status: ('A' for Active; 'I' for Inactive)
REMARK    1  A    between atoms: C_1  and  N_15
REMARK    2  A    between atoms: C_6  and  C_7
REMARK    3  A    between atoms: C_12  and  C_20
REMARK    4  A    between atoms: C_13  and  C_21
REMARK                            x       y       z     vdW  Elec       q    Type
REMARK                         _______ _______ _______ _____ _____    ______ ____
ROOT
ATOM      8  C   UNL     1       5.149   5.571   0.000  0.00  0.00    +0.307 C 
ATOM      9  N   UNL     1       5.899   6.870   0.000  0.00  0.00    -0.169 N 
ATOM     10  H   UNL     1       5.407   7.723   0.000  0.00  0.00    +0.255 HD
ATOM     11  C   UNL     1       7.399   6.870   0.000  0.00  0.00    +0.408 C 
ATOM     12  N   UNL     1       8.149   8.169   0.000  0.00  0.00    -0.129 NA
ATOM     13  H   UNL     1       9.134   8.169   0.000  0.00  0.00    +0.306 HD
ATOM     14  N   UNL     1       8.149   5.571   0.000  0.00  0.00    -0.111 N 
ATOM     15  C   UNL     1       9.641   5.414   0.000  0.00  0.00    +0.106 A 
ATOM     16  C   UNL     1      10.645   6.529   0.000  0.00  0.00    +0.084 C 
ATOM     17  C   UNL     1       9.953   3.947   0.000  0.00  0.00    +0.065 A 
ATOM     18  C   UNL     1       8.654   3.197   0.000  0.00  0.00    +0.077 A 
ATOM     19  C   UNL     1       8.497   1.705   0.000  0.00  0.00    +0.069 C 
ATOM     20  N   UNL     1       7.539   4.201   0.000  0.00  0.00    -0.109 NA
ATOM     21  O   UNL     1       5.899   4.272   0.000  0.00  0.00    -0.252 OA
ENDROOT
BRANCH   8   7
ATOM      1  C   UNL     1       0.649   5.571   0.000  0.00  0.00    +0.273 A 
ATOM      5  C   UNL     1       1.400   4.272   0.000  0.00  0.00    +0.085 A 
ATOM      6  C   UNL     1       2.900   4.272   0.000  0.00  0.00    +0.021 A 
ATOM      7  C   UNL     1       3.650   5.571   0.000  0.00  0.00    +0.053 A 
ATOM     22  C   UNL     1       2.900   6.870   0.000  0.00  0.00    +0.021 A 
ATOM     23  C   UNL     1       1.400   6.870   0.000  0.00  0.00    +0.085 A 
BRANCH   1   2
ATOM      2  N   UNL     1      -0.851   5.571   0.000  0.00  0.00    +0.080 N 
ATOM      3  O   UNL     1      -1.601   4.272   0.000  0.00  0.00    +0.041 OA
ATOM      4  O   UNL     1      -1.601   6.870   0.000  0.00  0.00    -0.576 OA
ENDBRANCH   1   2
ENDBRANCH   8   7
TORSDOF 2