REMARK  Name = 29193
REMARK  0 active torsions:
REMARK  status: ('A' for Active; 'I' for Inactive)
REMARK                            x       y       z     vdW  Elec       q    Type
REMARK                         _______ _______ _______ _____ _____    ______ ____
ROOT
ATOM      1  S   UNL     1      -1.666   4.386   0.000  0.00  0.00    -0.011 S 
ATOM      2  C   UNL     1      -0.367   5.136   0.000  0.00  0.00    +0.179 A 
ATOM      3  N   UNL     1       0.932   4.386   0.000  0.00  0.00    -0.319 N 
ATOM      4  H   UNL     1       0.932   2.886   0.000  0.00  0.00    +0.169 HD
ATOM      5  C   UNL     1       2.231   5.136   0.000  0.00  0.00    +0.138 A 
ATOM      6  C   UNL     1       2.231   6.636   0.000  0.00  0.00    +0.100 A 
ATOM      7  C   UNL     1       0.932   7.386   0.000  0.00  0.00    +0.143 A 
ATOM      8  N   UNL     1       3.658   7.099   0.000  0.00  0.00    -0.331 N 
ATOM      9  H   UNL     1       4.121   8.526   0.000  0.00  0.00    +0.168 HD
ATOM     10  C   UNL     1       4.539   5.886   0.000  0.00  0.00    +0.157 A 
ATOM     11  S   UNL     1       6.039   5.886   0.000  0.00  0.00    -0.013 S 
ATOM     12  N   UNL     1       3.658   4.672   0.000  0.00  0.00    -0.320 N 
ATOM     13  H   UNL     1       4.121   3.245   0.000  0.00  0.00    +0.169 HD
ATOM     14  N   UNL     1      -0.367   6.636   0.000  0.00  0.00    -0.229 NA
ENDROOT
TORSDOF 0