REMARK  Name = 295701
REMARK  1 active torsions:
REMARK  status: ('A' for Active; 'I' for Inactive)
REMARK    1  A    between atoms: C_1  and  C_13
REMARK                            x       y       z     vdW  Elec       q    Type
REMARK                         _______ _______ _______ _____ _____    ______ ____
ROOT
ATOM      1  C   UNL     1       2.719   2.323   0.000  0.00  0.00    -0.049 A 
ATOM      2  C   UNL     1       1.420   3.073   0.000  0.00  0.00    +0.044 C 
ATOM      3  C   UNL     1       2.719   0.823   0.000  0.00  0.00    +0.005 A 
ATOM      4  C   UNL     1       4.018   0.073   0.000  0.00  0.00    +0.027 A 
ATOM      5  C   UNL     1       5.317   0.823   0.000  0.00  0.00    +0.064 A 
ATOM      6  N   UNL     1       6.744   0.359   0.000  0.00  0.00    -0.275 N 
ATOM      7  C   UNL     1       7.625  -0.854   0.000  0.00  0.00    +0.230 A 
ATOM      8  N   UNL     1       9.052  -0.391   0.000  0.00  0.00    -0.137 NA
ATOM      9  N   UNL     1       9.052   1.109   0.000  0.00  0.00    -0.122 NA
ATOM     10  C   UNL     1       7.625   1.573   0.000  0.00  0.00    +0.201 A 
ATOM     11  S   UNL     1       6.744   2.787   0.000  0.00  0.00    -0.048 S 
ATOM     12  C   UNL     1       5.317   2.323   0.000  0.00  0.00    +0.040 A 
ATOM     13  C   UNL     1       4.018   3.073   0.000  0.00  0.00    +0.020 A 
ENDROOT
TORSDOF 0