REMARK  Name = 288024
REMARK  3 active torsions:
REMARK  status: ('A' for Active; 'I' for Inactive)
REMARK    1  A    between atoms: C_1  and  C_17
REMARK    2  A    between atoms: C_6  and  S_7
REMARK    3  A    between atoms: S_7  and  N_18
REMARK                            x       y       z     vdW  Elec       q    Type
REMARK                         _______ _______ _______ _____ _____    ______ ____
ROOT
ATOM      7  N   UNL     1       8.250   2.250   0.000  0.00  0.00    -0.169 N 
ATOM      8  H   UNL     1       8.815   1.444   0.000  0.00  0.00    +0.178 HD
ATOM      9  C   UNL     1       8.763   3.660   0.000  0.00  0.00    +0.325 C 
ATOM     10  N   UNL     1      10.240   3.920   0.000  0.00  0.00    -0.247 N 
ATOM     11  H   UNL     1      10.577   4.845   0.000  0.00  0.00    +0.158 HD
ATOM     12  C   UNL     1      11.204   2.771   0.000  0.00  0.00    +0.166 A 
ATOM     13  S   UNL     1      12.701   2.876   0.000  0.00  0.00    -0.060 S 
ATOM     14  C   UNL     1      13.263   1.485   0.000  0.00  0.00    +0.068 A 
ATOM     15  C   UNL     1      12.114   0.521   0.000  0.00  0.00    +0.120 A 
ATOM     16  N   UNL     1      10.842   1.315   0.000  0.00  0.00    -0.233 NA
ATOM     17  O   UNL     1       7.799   4.809   0.000  0.00  0.00    -0.251 OA
ENDROOT
BRANCH   7   6
ATOM      6  S   UNL     1       6.750   2.250   0.000  0.00  0.00    +0.076 S 
ATOM     18  O   UNL     1       6.750   0.750   0.000  0.00  0.00    -0.150 OA
ATOM     19  O   UNL     1       6.750   3.750   0.000  0.00  0.00    -0.150 OA
BRANCH   6   5
ATOM      1  C   UNL     1       2.250   2.250   0.000  0.00  0.00    -0.050 A 
ATOM      2  C   UNL     1       0.750   2.250   0.000  0.00  0.00    +0.044 C 
ATOM      3  C   UNL     1       3.000   0.951   0.000  0.00  0.00    +0.005 A 
ATOM      4  C   UNL     1       4.500   0.951   0.000  0.00  0.00    +0.029 A 
ATOM      5  C   UNL     1       5.250   2.250   0.000  0.00  0.00    +0.109 A 
ATOM     20  C   UNL     1       4.500   3.549   0.000  0.00  0.00    +0.029 A 
ATOM     21  C   UNL     1       3.000   3.549   0.000  0.00  0.00    +0.005 A 
ENDBRANCH   6   5
ENDBRANCH   7   6
TORSDOF 2