REMARK  Name = 293360
REMARK  8 active torsions:
REMARK  status: ('A' for Active; 'I' for Inactive)
REMARK    1  A    between atoms: C_2  and  O_19
REMARK    2  A    between atoms: C_3  and  C_20
REMARK    3  A    between atoms: C_4  and  C_6
REMARK    4  A    between atoms: C_5  and  O_21
REMARK    5  A    between atoms: C_6  and  C_22
REMARK    6  A    between atoms: C_10  and  C_23
REMARK    7  A    between atoms: C_18  and  C_24
REMARK    8  A    between atoms: C_18  and  N_25
REMARK                            x       y       z     vdW  Elec       q    Type
REMARK                         _______ _______ _______ _____ _____    ______ ____
ROOT
ATOM      4  C   UNL     1       3.696   4.355   0.000  0.00  0.00    +0.101 A 
ATOM      5  C   UNL     1       5.188   4.512   0.000  0.00  0.00    +0.150 A 
ATOM      6  C   UNL     1       6.070   3.299   0.000  0.00  0.00    +0.058 A 
ATOM      7  C   UNL     1       7.497   3.762   0.000  0.00  0.00    +0.120 C 
ATOM      8  C   UNL     1       7.340   2.270   0.000  0.00  0.00    +0.033 C 
ATOM      9  C   UNL     1       8.796   3.012   0.000  0.00  0.00    +0.186 C 
ATOM     10  O   UNL     1       8.796   1.512   0.000  0.00  0.00    -0.290 OA
ATOM     11  C   UNL     1      10.095   3.762   0.000  0.00  0.00    +0.082 C 
ATOM     12  C   UNL     1      11.394   3.012   0.000  0.00  0.00    +0.013 C 
ATOM     16  C   UNL     1      11.394   1.512   0.000  0.00  0.00    +0.061 C 
ATOM     17  C   UNL     1      10.095   5.262   0.000  0.00  0.00    +0.194 C 
ATOM     18  O   UNL     1      11.394   6.012   0.000  0.00  0.00    -0.287 OA
ATOM     19  C   UNL     1       8.796   6.012   0.000  0.00  0.00    +0.094 C 
ATOM     20  C   UNL     1       7.497   5.262   0.000  0.00  0.00    +0.127 C 
ATOM     21  C   UNL     1       5.460   1.928   0.000  0.00  0.00    +0.131 A 
ATOM     24  C   UNL     1       3.968   1.772   0.000  0.00  0.00    +0.034 A 
ATOM     25  C   UNL     1       3.358   0.401   0.000  0.00  0.00    +0.051 C 
ATOM     26  O   UNL     1       6.070   5.726   0.000  0.00  0.00    -0.458 OA
ATOM     27  C   UNL     1       3.086   2.985   0.000  0.00  0.00    +0.137 A 
ENDROOT
BRANCH   4   2
ATOM      1  O   UNL     1       1.323   5.412   0.000  0.00  0.00    -0.292 OA
ATOM      2  C   UNL     1       2.815   5.569   0.000  0.00  0.00    +0.167 C 
ATOM      3  C   UNL     1       3.425   6.939   0.000  0.00  0.00    +0.092 C 
ENDBRANCH   4   2
BRANCH  12  13
ATOM     13  N   UNL     1      12.693   3.762   0.000  0.00  0.00    -0.361 N 
ATOM     14  H   UNL     1      12.693   4.747   0.000  0.00  0.00    +0.142 HD
ATOM     15  H   UNL     1      13.545   3.270   0.000  0.00  0.00    +0.142 HD
ENDBRANCH  12  13
BRANCH  21  22
ATOM     22  O   UNL     1       6.341   0.715   0.000  0.00  0.00    -0.506 OA
ATOM     23  H   UNL     1       5.960  -0.141   0.000  0.00  0.00    +0.292 HD
ENDBRANCH  21  22
BRANCH  27  28
ATOM     28  O   UNL     1       1.595   2.828   0.000  0.00  0.00    -0.506 OA
ATOM     29  H   UNL     1       1.044   3.586   0.000  0.00  0.00    +0.292 HD
ENDBRANCH  27  28
TORSDOF 4