REMARK  Name = 298793
REMARK  4 active torsions:
REMARK  status: ('A' for Active; 'I' for Inactive)
REMARK    1  A    between atoms: C_2  and  C_11
REMARK    2  A    between atoms: N_3  and  C_17
REMARK    3  A    between atoms: C_5  and  C_17
REMARK    4  A    between atoms: C_5  and  O_18
REMARK                            x       y       z     vdW  Elec       q    Type
REMARK                         _______ _______ _______ _____ _____    ______ ____
ROOT
ATOM      1  C   UNL     1       2.579   5.489   0.000  0.00  0.00    +0.323 C 
ATOM      8  N   UNL     1       4.057   5.229   0.000  0.00  0.00    -0.207 N 
ATOM     18  O   UNL     1       4.570   3.820   0.000  0.00  0.00    -0.625 OA
ENDROOT
BRANCH   1   2
ATOM      2  C   UNL     1       1.615   4.340   0.000  0.00  0.00    +0.039 A 
ATOM      3  C   UNL     1       0.138   4.601   0.000  0.00  0.00    +0.014 A 
ATOM      4  C   UNL     1      -0.826   3.452   0.000  0.00  0.00    +0.001 A 
ATOM      5  C   UNL     1      -0.313   2.042   0.000  0.00  0.00    +0.000 A 
ATOM      6  C   UNL     1       1.164   1.782   0.000  0.00  0.00    +0.001 A 
ATOM      7  C   UNL     1       2.128   2.931   0.000  0.00  0.00    +0.014 A 
ENDBRANCH   1   2
BRANCH   8   9
ATOM      9  C   UNL     1       5.021   6.378   0.000  0.00  0.00    +0.398 C 
BRANCH   9  10
ATOM     10  C   UNL     1       6.498   6.118   0.000  0.00  0.00    +0.126 C 
ATOM     13  C   UNL     1       7.797   5.368   0.000  0.00  0.00    +0.041 C 
ATOM     14  C   UNL     1       9.096   6.118   0.000  0.00  0.00    +0.003 C 
ATOM     15  C   UNL     1       9.096   7.618   0.000  0.00  0.00    +0.000 C 
ATOM     16  C   UNL     1       7.797   8.368   0.000  0.00  0.00    +0.003 C 
ATOM     17  C   UNL     1       6.498   7.618   0.000  0.00  0.00    +0.041 C 
BRANCH  10  11
ATOM     11  O   UNL     1       5.985   4.708   0.000  0.00  0.00    -0.382 OA
ATOM     12  H   UNL     1       5.030   4.540   0.000  0.00  0.00    +0.210 HD
ENDBRANCH  10  11
ENDBRANCH   9  10
ENDBRANCH   8   9
TORSDOF 4