REMARK  Name = 298892
REMARK  6 active torsions:
REMARK  status: ('A' for Active; 'I' for Inactive)
REMARK    1  A    between atoms: C_1  and  N_16
REMARK    2  A    between atoms: C_2  and  C_17
REMARK    3  A    between atoms: C_5  and  C_7
REMARK    4  A    between atoms: C_8  and  N_19
REMARK    5  A    between atoms: C_13  and  C_28
REMARK    6  A    between atoms: N_14  and  C_22
REMARK                            x       y       z     vdW  Elec       q    Type
REMARK                         _______ _______ _______ _____ _____    ______ ____
ROOT
ATOM      1  C   UNL     1      -1.834  -7.677   0.000  0.00  0.00    +0.200 C 
ATOM      5  C   UNL     1      -1.834  -9.177   0.000  0.00  0.00    +0.098 C 
ATOM      8  C   UNL     1      -0.535  -9.927   0.000  0.00  0.00    +0.101 C 
ATOM     18  C   UNL     1       0.764  -9.177   0.000  0.00  0.00    +0.050 A 
ATOM     19  C   UNL     1       2.191  -9.640   0.000  0.00  0.00    +0.068 A 
ATOM     20  C   UNL     1       2.654 -11.067   0.000  0.00  0.00    +0.068 C 
ATOM     21  N   UNL     1       3.072  -8.427   0.000  0.00  0.00    -0.168 NA
ATOM     22  N   UNL     1       2.191  -7.213   0.000  0.00  0.00    -0.200 N 
ATOM     29  C   UNL     1       0.764  -7.677   0.000  0.00  0.00    +0.230 A 
ATOM     30  O   UNL     1      -0.535  -6.927   0.000  0.00  0.00    -0.423 OA
ENDROOT
BRANCH   8   9
ATOM      9  C   UNL     1      -0.535 -11.427   0.000  0.00  0.00    -0.034 A 
ATOM     10  C   UNL     1       0.764 -12.177   0.000  0.00  0.00    +0.011 A 
ATOM     11  C   UNL     1       0.764 -13.677   0.000  0.00  0.00    +0.084 A 
ATOM     12  C   UNL     1      -0.535 -14.427   0.000  0.00  0.00    +0.273 A 
ATOM     16  C   UNL     1      -1.834 -13.677   0.000  0.00  0.00    +0.084 A 
ATOM     17  C   UNL     1      -1.834 -12.177   0.000  0.00  0.00    +0.011 A 
BRANCH  12  13
ATOM     13  N   UNL     1      -0.535 -15.927   0.000  0.00  0.00    +0.080 N 
ATOM     14  O   UNL     1       0.764 -16.677   0.000  0.00  0.00    +0.041 OA
ATOM     15  O   UNL     1      -1.834 -16.677   0.000  0.00  0.00    -0.576 OA
ENDBRANCH  12  13
ENDBRANCH   8   9
BRANCH  22  23
ATOM     23  C   UNL     1       2.654  -5.787   0.000  0.00  0.00    +0.069 A 
ATOM     24  C   UNL     1       4.121  -5.475   0.000  0.00  0.00    +0.028 A 
ATOM     25  C   UNL     1       4.585  -4.048   0.000  0.00  0.00    +0.002 A 
ATOM     26  C   UNL     1       3.581  -2.934   0.000  0.00  0.00    +0.000 A 
ATOM     27  C   UNL     1       2.114  -3.245   0.000  0.00  0.00    +0.002 A 
ATOM     28  C   UNL     1       1.650  -4.672   0.000  0.00  0.00    +0.028 A 
ENDBRANCH  22  23
BRANCH   1   2
ATOM      2  N   UNL     1      -3.133  -6.927   0.000  0.00  0.00    -0.328 N 
ATOM      3  H   UNL     1      -3.986  -7.419   0.000  0.00  0.00    +0.145 HD
ATOM      4  H   UNL     1      -3.133  -5.942   0.000  0.00  0.00    +0.145 HD
ENDBRANCH   1   2
BRANCH   5   6
ATOM      6  C   UNL     1      -3.133  -9.927   0.000  0.00  0.00    +0.101 C 
ATOM      7  N   UNL     1      -4.432 -10.677   0.000  0.00  0.00    -0.191 NA
ENDBRANCH   5   6
TORSDOF 5