REMARK  Name = 29620
REMARK  8 active torsions:
REMARK  status: ('A' for Active; 'I' for Inactive)
REMARK    1  A    between atoms: C_5  and  C_9
REMARK    2  A    between atoms: C_5  and  C_16
REMARK    3  A    between atoms: C_9  and  C_10
REMARK    4  A    between atoms: C_10  and  C_11
REMARK    5  A    between atoms: C_11  and  C_12
REMARK    6  A    between atoms: C_12  and  C_13
REMARK    7  A    between atoms: C_13  and  C_14
REMARK    8  A    between atoms: C_14  and  C_15
REMARK                            x       y       z     vdW  Elec       q    Type
REMARK                         _______ _______ _______ _____ _____    ______ ____
ROOT
ATOM      1  O   UNL     1     -11.830  -5.693   0.000  0.00  0.00    -0.252 OA
ATOM      2  C   UNL     1     -10.404  -6.156   0.000  0.00  0.00    +0.307 C 
ATOM      3  N   UNL     1      -9.940  -7.583   0.000  0.00  0.00    -0.238 N 
ATOM      4  H   UNL     1     -10.519  -8.379   0.000  0.00  0.00    +0.159 HD
ATOM      5  C   UNL     1      -8.440  -7.583   0.000  0.00  0.00    +0.244 C 
ATOM      6  C   UNL     1      -7.977  -6.156   0.000  0.00  0.00    +0.110 C 
ATOM      7  C   UNL     1      -6.606  -6.766   0.000  0.00  0.00    +0.041 C 
ATOM     15  O   UNL     1      -7.559  -8.796   0.000  0.00  0.00    -0.273 OA
ATOM     16  N   UNL     1      -9.190  -5.275   0.000  0.00  0.00    -0.285 N 
ATOM     17  H   UNL     1      -9.190  -3.775   0.000  0.00  0.00    +0.151 HD
ENDROOT
BRANCH   6   8
ATOM      8  C   UNL     1      -7.227  -4.857   0.000  0.00  0.00    +0.035 C 
BRANCH   8   9
ATOM      9  C   UNL     1      -5.727  -4.857   0.000  0.00  0.00    +0.003 C 
BRANCH   9  10
ATOM     10  C   UNL     1      -4.977  -3.558   0.000  0.00  0.00    +0.000 C 
BRANCH  10  11
ATOM     11  C   UNL     1      -3.477  -3.558   0.000  0.00  0.00    -0.000 C 
BRANCH  11  12
ATOM     12  C   UNL     1      -2.727  -2.259   0.000  0.00  0.00    -0.000 C 
BRANCH  12  13
ATOM     13  C   UNL     1      -1.227  -2.259   0.000  0.00  0.00    -0.003 C 
ATOM     14  C   UNL     1      -0.477  -0.960   0.000  0.00  0.00    +0.004 C 
ENDBRANCH  12  13
ENDBRANCH  11  12
ENDBRANCH  10  11
ENDBRANCH   9  10
ENDBRANCH   8   9
ENDBRANCH   6   8
TORSDOF 6