REMARK  Name = 294750
REMARK  6 active torsions:
REMARK  status: ('A' for Active; 'I' for Inactive)
REMARK    1  A    between atoms: S_1  and  C_2
REMARK    2  A    between atoms: S_1  and  C_15
REMARK    3  A    between atoms: C_5  and  C_7
REMARK    4  A    between atoms: C_6  and  N_16
REMARK    5  A    between atoms: C_9  and  N_17
REMARK    6  A    between atoms: C_14  and  N_18
REMARK                            x       y       z     vdW  Elec       q    Type
REMARK                         _______ _______ _______ _____ _____    ______ ____
ROOT
ATOM      6  C   UNL     1       2.813   0.108   0.000  0.00  0.00    +0.258 C 
ATOM      7  N   UNL     1       3.563  -1.191   0.000  0.00  0.00    -0.281 N 
ATOM      8  H   UNL     1       3.070  -2.043   0.000  0.00  0.00    +0.155 HD
ATOM     18  O   UNL     1       1.313   0.108   0.000  0.00  0.00    -0.269 OA
ENDROOT
BRANCH   7   9
ATOM      9  C   UNL     1       5.063  -1.191   0.000  0.00  0.00    +0.034 A 
ATOM     10  C   UNL     1       5.813  -2.490   0.000  0.00  0.00    +0.030 A 
ATOM     11  C   UNL     1       7.313  -2.490   0.000  0.00  0.00    +0.086 A 
ATOM     12  C   UNL     1       8.063  -1.191   0.000  0.00  0.00    +0.273 A 
ATOM     16  C   UNL     1       7.313   0.108   0.000  0.00  0.00    +0.086 A 
ATOM     17  C   UNL     1       5.813   0.108   0.000  0.00  0.00    +0.030 A 
BRANCH  12  13
ATOM     13  N   UNL     1       9.563  -1.191   0.000  0.00  0.00    +0.080 N 
ATOM     14  O   UNL     1      10.313  -2.490   0.000  0.00  0.00    +0.041 OA
ATOM     15  O   UNL     1      10.313   0.108   0.000  0.00  0.00    -0.576 OA
ENDBRANCH  12  13
ENDBRANCH   7   9
BRANCH   6   5
ATOM      3  C   UNL     1       5.366   3.031   0.000  0.00  0.00    +0.137 A 
ATOM      4  S   UNL     1       5.054   1.564   0.000  0.00  0.00    -0.054 S 
ATOM      5  C   UNL     1       3.563   1.407   0.000  0.00  0.00    +0.116 A 
ATOM     19  C   UNL     1       2.953   2.778   0.000  0.00  0.00    +0.137 A 
ATOM     23  N   UNL     1       4.067   3.781   0.000  0.00  0.00    -0.218 NA
BRANCH  19  20
ATOM     20  N   UNL     1       1.485   3.089   0.000  0.00  0.00    -0.342 N 
ATOM     21  H   UNL     1       0.827   2.358   0.000  0.00  0.00    +0.144 HD
ATOM     22  H   UNL     1       1.181   4.026   0.000  0.00  0.00    +0.144 HD
ENDBRANCH  19  20
BRANCH   3   1
ATOM      1  S   UNL     1       6.737   3.641   0.000  0.00  0.00    -0.102 S 
ATOM      2  C   UNL     1       6.893   5.133   0.000  0.00  0.00    +0.092 C 
ENDBRANCH   3   1
ENDBRANCH   6   5
TORSDOF 5