REMARK  Name = 29851
REMARK  1 active torsions:
REMARK  status: ('A' for Active; 'I' for Inactive)
REMARK    1  A    between atoms: N_2  and  C_10
REMARK                            x       y       z     vdW  Elec       q    Type
REMARK                         _______ _______ _______ _____ _____    ______ ____
ROOT
ATOM      1  S   UNL     1       0.623   1.590   0.000  0.00  0.00    -0.031 S 
ATOM      2  C   UNL     1       1.678   0.525   0.000  0.00  0.00    +0.291 A 
ATOM      3  O   UNL     1       3.161   0.752   0.000  0.00  0.00    -0.259 OA
ATOM      4  N   UNL     1       0.991  -0.809   0.000  0.00  0.00    -0.309 N 
ATOM      5  C   UNL     1       1.665  -2.148   0.000  0.00  0.00    +0.153 C 
ATOM      6  C   UNL     1      -0.489  -0.567   0.000  0.00  0.00    +0.032 A 
ATOM      7  C   UNL     1      -1.829  -1.241   0.000  0.00  0.00    +0.054 C 
ATOM      8  C   UNL     1      -2.885  -0.176   0.000  0.00  0.00    +0.011 C 
ATOM      9  C   UNL     1      -2.197   1.158   0.000  0.00  0.00    +0.045 C 
ATOM     10  C   UNL     1      -0.717   0.916   0.000  0.00  0.00    +0.014 A 
ENDROOT
TORSDOF 0