REMARK  Name = 294161
REMARK  4 active torsions:
REMARK  status: ('A' for Active; 'I' for Inactive)
REMARK    1  A    between atoms: C_3  and  C_11
REMARK    2  A    between atoms: C_7  and  C_13
REMARK    3  A    between atoms: C_8  and  C_12
REMARK    4  A    between atoms: C_12  and  C_14
REMARK                            x       y       z     vdW  Elec       q    Type
REMARK                         _______ _______ _______ _____ _____    ______ ____
ROOT
ATOM      1  N   UNL     1       2.893  -1.595   0.000  0.00  0.00    -0.178 NA
ATOM      2  N   UNL     1       3.774  -2.808   0.000  0.00  0.00    -0.275 N 
ATOM      3  C   UNL     1       5.201  -2.345   0.000  0.00  0.00    +0.091 A 
ATOM      4  C   UNL     1       6.500  -3.095   0.000  0.00  0.00    +0.093 A 
ATOM     12  N   UNL     1       7.799  -2.345   0.000  0.00  0.00    -0.152 NA
ATOM     13  N   UNL     1       7.799  -0.845   0.000  0.00  0.00    -0.154 NA
ATOM     14  C   UNL     1       6.500  -0.095   0.000  0.00  0.00    +0.071 A 
ATOM     15  C   UNL     1       6.500   1.405   0.000  0.00  0.00    +0.068 C 
ATOM     16  C   UNL     1       5.201  -0.845   0.000  0.00  0.00    +0.047 A 
ATOM     17  H   UNL     1       3.311  -4.235   0.000  0.00  0.00    +0.189 HD
ATOM     18  C   UNL     1       3.774  -0.381   0.000  0.00  0.00    +0.069 A 
ATOM     19  C   UNL     1       3.311   1.046   0.000  0.00  0.00    +0.068 C 
ENDROOT
BRANCH   4   5
ATOM      5  C   UNL     1       6.500  -4.595   0.000  0.00  0.00    +0.094 C 
BRANCH   5   6
ATOM      6  C   UNL     1       7.799  -5.345   0.000  0.00  0.00    -0.041 A 
ATOM      7  C   UNL     1       7.799  -6.845   0.000  0.00  0.00    +0.004 A 
ATOM      8  C   UNL     1       9.098  -7.595   0.000  0.00  0.00    +0.000 A 
ATOM      9  C   UNL     1      10.397  -6.845   0.000  0.00  0.00    +0.000 A 
ATOM     10  C   UNL     1      10.397  -5.345   0.000  0.00  0.00    +0.000 A 
ATOM     11  C   UNL     1       9.098  -4.595   0.000  0.00  0.00    +0.004 A 
ENDBRANCH   5   6
ENDBRANCH   4   5
TORSDOF 2