REMARK  Name = 293334
REMARK  7 active torsions:
REMARK  status: ('A' for Active; 'I' for Inactive)
REMARK    1  A    between atoms: C_5  and  C_6
REMARK    2  A    between atoms: C_5  and  O_9
REMARK    3  A    between atoms: C_8  and  C_12
REMARK    4  A    between atoms: O_9  and  C_13
REMARK    5  A    between atoms: C_11  and  C_12
REMARK    6  A    between atoms: C_13  and  C_14
REMARK    7  A    between atoms: N_15  and  C_16
REMARK                            x       y       z     vdW  Elec       q    Type
REMARK                         _______ _______ _______ _____ _____    ______ ____
ROOT
ATOM      1  C   UNL     1      -2.653   0.079   0.000  0.00  0.00    +0.034 A 
ATOM      2  C   UNL     1      -2.612  -1.420   0.000  0.00  0.00    +0.083 A 
ATOM      3  N   UNL     1      -1.174  -1.845   0.000  0.00  0.00    -0.363 N 
ATOM      4  H   UNL     1      -0.672  -3.259   0.000  0.00  0.00    +0.165 HD
ATOM      5  C   UNL     1      -0.325  -0.608   0.000  0.00  0.00    +0.039 A 
ATOM     12  C   UNL     1      -1.239   0.581   0.000  0.00  0.00    +0.080 A 
ENDROOT
BRANCH  12  13
ATOM     13  C   UNL     1      -0.814   2.020   0.000  0.00  0.00    +0.341 C 
ATOM     17  O   UNL     1       0.644   2.371   0.000  0.00  0.00    -0.245 OA
BRANCH  13  14
ATOM     14  O   UNL     1      -1.848   3.107   0.000  0.00  0.00    -0.461 OA
BRANCH  14  15
ATOM     15  C   UNL     1      -1.423   4.545   0.000  0.00  0.00    +0.229 C 
ATOM     16  C   UNL     1       0.035   4.897   0.000  0.00  0.00    +0.048 C 
ENDBRANCH  14  15
ENDBRANCH  13  14
ENDBRANCH  12  13
BRANCH   5   6
ATOM      6  C   UNL     1       1.174  -0.568   0.000  0.00  0.00    +0.149 C 
BRANCH   6   7
ATOM      7  C   UNL     1       1.959  -1.846   0.000  0.00  0.00    +0.219 C 
ATOM      8  N   UNL     1       3.459  -1.805   0.000  0.00  0.00    -0.318 N 
ATOM      9  H   UNL     1       3.928  -0.940   0.000  0.00  0.00    +0.148 HD
ATOM     10  C   UNL     1       4.244  -3.084   0.000  0.00  0.00    +0.128 C 
ATOM     11  O   UNL     1       1.245  -3.165   0.000  0.00  0.00    -0.275 OA
ENDBRANCH   6   7
ENDBRANCH   5   6
TORSDOF 5