REMARK  Name = 294747
REMARK  5 active torsions:
REMARK  status: ('A' for Active; 'I' for Inactive)
REMARK    1  A    between atoms: S_1  and  C_3
REMARK    2  A    between atoms: S_1  and  C_15
REMARK    3  A    between atoms: C_5  and  C_7
REMARK    4  A    between atoms: C_6  and  N_16
REMARK    5  A    between atoms: C_9  and  N_17
REMARK                            x       y       z     vdW  Elec       q    Type
REMARK                         _______ _______ _______ _____ _____    ______ ____
ROOT
ATOM      3  C   UNL     1       6.744  -0.236   0.000  0.00  0.00    +0.137 A 
ATOM      4  S   UNL     1       6.432  -1.703   0.000  0.00  0.00    -0.054 S 
ATOM      5  C   UNL     1       4.940  -1.860   0.000  0.00  0.00    +0.116 A 
ATOM     16  C   UNL     1       4.330  -0.490   0.000  0.00  0.00    +0.137 A 
ATOM     20  N   UNL     1       5.444   0.514   0.000  0.00  0.00    -0.218 NA
ENDROOT
BRANCH   5   6
ATOM      6  C   UNL     1       4.190  -3.159   0.000  0.00  0.00    +0.254 C 
ATOM      7  N   UNL     1       4.940  -4.458   0.000  0.00  0.00    -0.308 N 
ATOM      8  H   UNL     1       4.448  -5.311   0.000  0.00  0.00    +0.149 HD
ATOM     15  O   UNL     1       2.690  -3.159   0.000  0.00  0.00    -0.270 OA
BRANCH   7   9
ATOM      9  C   UNL     1       6.440  -4.458   0.000  0.00  0.00    +0.073 C 
ATOM     10  C   UNL     1       7.190  -5.757   0.000  0.00  0.00    +0.022 C 
ATOM     11  C   UNL     1       8.690  -5.757   0.000  0.00  0.00    +0.002 C 
ATOM     12  C   UNL     1       9.440  -4.458   0.000  0.00  0.00    +0.000 C 
ATOM     13  C   UNL     1       8.690  -3.159   0.000  0.00  0.00    +0.002 C 
ATOM     14  C   UNL     1       7.190  -3.159   0.000  0.00  0.00    +0.022 C 
ENDBRANCH   7   9
ENDBRANCH   5   6
BRANCH  16  17
ATOM     17  N   UNL     1       2.863  -0.178   0.000  0.00  0.00    -0.342 N 
ATOM     18  H   UNL     1       2.204  -0.909   0.000  0.00  0.00    +0.144 HD
ATOM     19  H   UNL     1       2.558   0.759   0.000  0.00  0.00    +0.144 HD
ENDBRANCH  16  17
BRANCH   3   1
ATOM      1  S   UNL     1       8.114   0.374   0.000  0.00  0.00    -0.102 S 
ATOM      2  C   UNL     1       8.271   1.866   0.000  0.00  0.00    +0.092 C 
ENDBRANCH   3   1
TORSDOF 4