REMARK  Name = 299119
REMARK  6 active torsions:
REMARK  status: ('A' for Active; 'I' for Inactive)
REMARK    1  A    between atoms: N_6  and  C_16
REMARK    2  A    between atoms: N_7  and  N_8
REMARK    3  A    between atoms: N_11  and  C_17
REMARK    4  A    between atoms: C_13  and  C_17
REMARK    5  A    between atoms: C_13  and  C_18
REMARK    6  A    between atoms: C_14  and  C_19
REMARK                            x       y       z     vdW  Elec       q    Type
REMARK                         _______ _______ _______ _____ _____    ______ ____
ROOT
ATOM      7  N   UNL     1       0.386   7.546   0.000  0.00  0.00    -0.124 NA
ATOM      8  C   UNL     1       1.813   7.082   0.000  0.00  0.00    +0.186 C 
ATOM      9  N   UNL     1       2.276   5.656   0.000  0.00  0.00    -0.244 N 
ATOM     14  C   UNL     1       3.776   5.656   0.000  0.00  0.00    +0.235 C 
ATOM     15  O   UNL     1       4.658   4.442   0.000  0.00  0.00    -0.274 OA
ATOM     16  C   UNL     1       4.240   7.082   0.000  0.00  0.00    +0.137 C 
ATOM     17  C   UNL     1       5.666   7.546   0.000  0.00  0.00    +0.029 C 
ATOM     18  S   UNL     1       3.026   7.964   0.000  0.00  0.00    -0.076 S 
ENDROOT
BRANCH   7   6
ATOM      1  O   UNL     1      -5.000   9.646   0.000  0.00  0.00    -0.274 OA
ATOM      2  C   UNL     1      -4.119   8.432   0.000  0.00  0.00    +0.231 C 
ATOM      3  N   UNL     1      -2.619   8.432   0.000  0.00  0.00    -0.252 N 
ATOM      4  C   UNL     1      -1.737   9.646   0.000  0.00  0.00    +0.140 C 
ATOM      5  C   UNL     1      -2.155   7.006   0.000  0.00  0.00    +0.185 C 
ATOM      6  N   UNL     1      -0.729   6.542   0.000  0.00  0.00    -0.124 NA
ATOM     19  S   UNL     1      -3.369   6.124   0.000  0.00  0.00    -0.079 S 
ATOM     20  C   UNL     1      -4.582   7.006   0.000  0.00  0.00    +0.173 C 
ENDBRANCH   7   6
BRANCH   9  10
ATOM     10  C   UNL     1       1.395   4.442   0.000  0.00  0.00    +0.145 C 
BRANCH  10  11
ATOM     11  C   UNL     1       2.005   3.072   0.000  0.00  0.00    -0.062 C 
ATOM     12  C   UNL     1       3.496   2.915   0.000  0.00  0.00    +0.009 C 
ATOM     13  C   UNL     1       1.123   1.859   0.000  0.00  0.00    +0.040 C 
ENDBRANCH  10  11
ENDBRANCH   9  10
TORSDOF 3