REMARK  Name = 298197
REMARK  4 active torsions:
REMARK  status: ('A' for Active; 'I' for Inactive)
REMARK    1  A    between atoms: C_1  and  O_14
REMARK    2  A    between atoms: C_5  and  O_15
REMARK    3  A    between atoms: C_6  and  N_7
REMARK    4  A    between atoms: N_8  and  C_9
REMARK                            x       y       z     vdW  Elec       q    Type
REMARK                         _______ _______ _______ _____ _____    ______ ____
ROOT
ATOM      1  C   UNL     1       3.475   7.520   0.000  0.00  0.00    +0.120 A 
ATOM      4  C   UNL     1       1.976   7.520   0.000  0.00  0.00    +0.048 A 
ATOM      5  C   UNL     1       1.226   6.221   0.000  0.00  0.00    +0.037 A 
ATOM      6  C   UNL     1       1.976   4.922   0.000  0.00  0.00    +0.128 A 
ATOM     14  C   UNL     1       3.475   4.922   0.000  0.00  0.00    +0.147 A 
ATOM     17  C   UNL     1       4.226   6.221   0.000  0.00  0.00    +0.093 A 
ENDROOT
BRANCH   1   2
ATOM      2  O   UNL     1       4.226   8.819   0.000  0.00  0.00    -0.507 OA
ATOM      3  H   UNL     1       5.162   8.819   0.000  0.00  0.00    +0.292 HD
ENDBRANCH   1   2
BRANCH   6   7
ATOM      7  N   UNL     1       1.226   3.623   0.000  0.00  0.00    -0.144 NA
ATOM      8  N   UNL     1       1.976   2.324   0.000  0.00  0.00    -0.121 NA
BRANCH   8   9
ATOM      9  C   UNL     1       1.226   1.025   0.000  0.00  0.00    +0.213 A 
ATOM     10  N   UNL     1       1.836  -0.346   0.000  0.00  0.00    -0.228 NA
ATOM     11  C   UNL     1       0.721  -1.349   0.000  0.00  0.00    +0.121 A 
ATOM     12  C   UNL     1      -0.578  -0.600   0.000  0.00  0.00    +0.068 A 
ATOM     13  S   UNL     1      -0.266   0.868   0.000  0.00  0.00    -0.055 S 
ENDBRANCH   8   9
ENDBRANCH   6   7
BRANCH  14  15
ATOM     15  O   UNL     1       4.226   3.623   0.000  0.00  0.00    -0.504 OA
ATOM     16  H   UNL     1       3.757   2.811   0.000  0.00  0.00    +0.292 HD
ENDBRANCH  14  15
TORSDOF 4