REMARK  Name = 29073
REMARK  10 active torsions:
REMARK  status: ('A' for Active; 'I' for Inactive)
REMARK    1  A    between atoms: C_2  and  N_14
REMARK    2  A    between atoms: C_5  and  N_13
REMARK    3  A    between atoms: C_7  and  C_8
REMARK    4  A    between atoms: C_7  and  C_9
REMARK    5  A    between atoms: C_7  and  C_10
REMARK    6  A    between atoms: C_7  and  C_11
REMARK    7  A    between atoms: C_15  and  C_17
REMARK    8  A    between atoms: C_17  and  C_18
REMARK    9  A    between atoms: C_17  and  C_19
REMARK   10  A    between atoms: C_17  and  C_20
REMARK                            x       y       z     vdW  Elec       q    Type
REMARK                         _______ _______ _______ _____ _____    ______ ____
ROOT
ATOM      1  C   UNL     1      -6.147  -0.750   0.000  0.00  0.00    +0.025 A 
ATOM      2  C   UNL     1      -7.446  -1.500   0.000  0.00  0.00    +0.025 A 
ATOM      3  C   UNL     1      -7.446  -3.000   0.000  0.00  0.00    +0.034 A 
ATOM     12  C   UNL     1      -6.147  -3.750   0.000  0.00  0.00    +0.025 A 
ATOM     13  C   UNL     1      -4.848  -3.000   0.000  0.00  0.00    +0.025 A 
ATOM     14  C   UNL     1      -4.848  -1.500   0.000  0.00  0.00    +0.034 A 
ENDROOT
BRANCH   3   4
ATOM      4  N   UNL     1      -8.745  -3.750   0.000  0.00  0.00    -0.285 N 
ATOM      5  H   UNL     1      -8.745  -4.734   0.000  0.00  0.00    +0.155 HD
ATOM      6  C   UNL     1     -10.044  -3.000   0.000  0.00  0.00    +0.223 C 
ATOM      7  O   UNL     1     -10.044  -1.500   0.000  0.00  0.00    -0.275 OA
BRANCH   6   8
ATOM      8  C   UNL     1     -11.343  -3.750   0.000  0.00  0.00    +0.039 C 
ATOM      9  C   UNL     1     -10.593  -5.049   0.000  0.00  0.00    +0.020 C 
ATOM     10  C   UNL     1     -12.642  -4.500   0.000  0.00  0.00    +0.020 C 
ATOM     11  C   UNL     1     -12.093  -2.451   0.000  0.00  0.00    +0.020 C 
ENDBRANCH   6   8
ENDBRANCH   3   4
BRANCH  14  15
ATOM     15  N   UNL     1      -3.549  -0.750   0.000  0.00  0.00    -0.285 N 
ATOM     16  H   UNL     1      -3.549   0.234   0.000  0.00  0.00    +0.155 HD
ATOM     17  C   UNL     1      -2.250  -1.500   0.000  0.00  0.00    +0.223 C 
ATOM     22  O   UNL     1      -0.951  -0.750   0.000  0.00  0.00    -0.275 OA
BRANCH  17  18
ATOM     18  C   UNL     1      -2.250  -3.000   0.000  0.00  0.00    +0.039 C 
ATOM     19  C   UNL     1      -0.750  -3.000   0.000  0.00  0.00    +0.020 C 
ATOM     20  C   UNL     1      -2.250  -4.500   0.000  0.00  0.00    +0.020 C 
ATOM     21  C   UNL     1      -3.750  -3.000   0.000  0.00  0.00    +0.020 C 
ENDBRANCH  17  18
ENDBRANCH  14  15
TORSDOF 4