REMARK  Name = 362093
REMARK  3 active torsions:
REMARK  status: ('A' for Active; 'I' for Inactive)
REMARK    1  A    between atoms: C_3  and  C_12
REMARK    2  A    between atoms: C_9  and  C_13
REMARK    3  A    between atoms: N_10  and  C_14
REMARK                            x       y       z     vdW  Elec       q    Type
REMARK                         _______ _______ _______ _____ _____    ______ ____
ROOT
ATOM      1 CL   UNL     1      -3.977   2.715   0.000  0.00  0.00    -0.076 Cl
ATOM      2  C   UNL     1      -2.722   1.893   0.000  0.00  0.00    +0.126 A 
ATOM      3  C   UNL     1      -2.806   0.395   0.000  0.00  0.00    +0.126 A 
ATOM      4  C   UNL     1      -4.145  -0.281   0.000  0.00  0.00    +0.088 C 
ATOM      5  O   UNL     1      -1.551  -0.426   0.000  0.00  0.00    -0.440 OA
ATOM      6  C   UNL     1      -0.212   0.250   0.000  0.00  0.00    +0.234 A 
ATOM      7  N   UNL     1       1.186  -0.293   0.000  0.00  0.00    -0.199 N 
ATOM     14  N   UNL     1       2.135   0.869   0.000  0.00  0.00    -0.168 NA
ATOM     15  C   UNL     1       1.323   2.130   0.000  0.00  0.00    +0.075 A 
ATOM     16  C   UNL     1       1.865   3.528   0.000  0.00  0.00    +0.068 C 
ATOM     17  C   UNL     1      -0.128   1.747   0.000  0.00  0.00    +0.108 A 
ATOM     18  C   UNL     1      -1.383   2.569   0.000  0.00  0.00    +0.214 A 
ATOM     19  O   UNL     1      -1.299   4.067   0.000  0.00  0.00    -0.285 OA
ENDROOT
BRANCH   7   8
ATOM      8  C   UNL     1       1.569  -1.744   0.000  0.00  0.00    +0.069 A 
ATOM      9  C   UNL     1       0.505  -2.800   0.000  0.00  0.00    +0.028 A 
ATOM     10  C   UNL     1       0.887  -4.250   0.000  0.00  0.00    +0.002 A 
ATOM     11  C   UNL     1       2.335  -4.644   0.000  0.00  0.00    +0.000 A 
ATOM     12  C   UNL     1       3.399  -3.587   0.000  0.00  0.00    +0.002 A 
ATOM     13  C   UNL     1       3.017  -2.137   0.000  0.00  0.00    +0.028 A 
ENDBRANCH   7   8
TORSDOF 1