REMARK  Name = 361056
REMARK  3 active torsions:
REMARK  status: ('A' for Active; 'I' for Inactive)
REMARK    1  A    between atoms: C_7  and  S_8
REMARK    2  A    between atoms: S_8  and  C_11
REMARK    3  A    between atoms: C_11  and  C_12
REMARK                            x       y       z     vdW  Elec       q    Type
REMARK                         _______ _______ _______ _____ _____    ______ ____
ROOT
ATOM      1  C   UNL     1       0.750   4.500   0.000  0.00  0.00    +0.071 A 
ATOM      2  C   UNL     1       0.750   3.000   0.000  0.00  0.00    +0.324 A 
ATOM      3  N   UNL     1       2.049   2.250   0.000  0.00  0.00    -0.155 N 
ATOM      4  O   UNL     1       2.049   0.750   0.000  0.00  0.00    -0.619 OA
ATOM      5  C   UNL     1       3.348   3.000   0.000  0.00  0.00    +0.335 A 
ATOM     12  C   UNL     1       3.348   4.500   0.000  0.00  0.00    +0.101 A 
ATOM     13  C   UNL     1       2.049   5.250   0.000  0.00  0.00    +0.014 A 
ENDROOT
BRANCH   5   6
ATOM      6  S   UNL     1       4.647   2.250   0.000  0.00  0.00    +0.068 S 
ATOM     10  O   UNL     1       3.897   0.951   0.000  0.00  0.00    -0.163 OA
ATOM     11  O   UNL     1       5.397   3.549   0.000  0.00  0.00    -0.163 OA
BRANCH   6   7
ATOM      7  C   UNL     1       5.946   1.500   0.000  0.00  0.00    +0.296 C 
BRANCH   7   8
ATOM      8  C   UNL     1       7.245   2.250   0.000  0.00  0.00    +0.086 C 
ATOM      9  N   UNL     1       8.544   3.000   0.000  0.00  0.00    -0.195 NA
ENDBRANCH   7   8
ENDBRANCH   6   7
ENDBRANCH   5   6
TORSDOF 3