REMARK  Name = 366807
REMARK  4 active torsions:
REMARK  status: ('A' for Active; 'I' for Inactive)
REMARK    1  A    between atoms: C_4  and  C_6
REMARK    2  A    between atoms: C_11  and  S_12
REMARK    3  A    between atoms: S_12  and  C_13
REMARK    4  A    between atoms: C_13  and  C_14
REMARK                            x       y       z     vdW  Elec       q    Type
REMARK                         _______ _______ _______ _____ _____    ______ ____
ROOT
ATOM      5  C   UNL     1       4.558   3.390   0.000  0.00  0.00    +0.169 A 
ATOM      6  N   UNL     1       5.440   2.177   0.000  0.00  0.00    -0.316 N 
ATOM      7  H   UNL     1       4.976   0.750   0.000  0.00  0.00    +0.169 HD
ATOM      8  C   UNL     1       6.867   2.640   0.000  0.00  0.00    +0.190 A 
ATOM     13  N   UNL     1       6.867   4.140   0.000  0.00  0.00    -0.122 NA
ATOM     14  N   UNL     1       5.440   4.604   0.000  0.00  0.00    -0.128 NA
ENDROOT
BRANCH   5   4
ATOM      1  C   UNL     1       0.750   4.140   0.000  0.00  0.00    +0.008 A 
ATOM      2  C   UNL     1       0.750   2.640   0.000  0.00  0.00    +0.046 A 
ATOM      3  S   UNL     1       2.177   2.177   0.000  0.00  0.00    -0.094 S 
ATOM      4  C   UNL     1       3.058   3.390   0.000  0.00  0.00    +0.056 A 
ATOM     15  C   UNL     1       2.177   4.604   0.000  0.00  0.00    +0.019 A 
ENDBRANCH   5   4
BRANCH   8   9
ATOM      9  S   UNL     1       8.080   1.758   0.000  0.00  0.00    -0.082 S 
BRANCH   9  10
ATOM     10  C   UNL     1       9.450   2.369   0.000  0.00  0.00    +0.104 C 
BRANCH  10  11
ATOM     11  C   UNL     1       9.607   3.860   0.000  0.00  0.00    -0.023 C 
ATOM     12  C   UNL     1       8.394   4.742   0.000  0.00  0.00    +0.005 C 
ENDBRANCH  10  11
ENDBRANCH   9  10
ENDBRANCH   8   9
TORSDOF 4