REMARK  Name = 365560
REMARK  5 active torsions:
REMARK  status: ('A' for Active; 'I' for Inactive)
REMARK    1  A    between atoms: C_5  and  S_6
REMARK    2  A    between atoms: S_6  and  C_9
REMARK    3  A    between atoms: C_7  and  N_8
REMARK    4  A    between atoms: N_8  and  C_10
REMARK    5  A    between atoms: N_8  and  C_11
REMARK                            x       y       z     vdW  Elec       q    Type
REMARK                         _______ _______ _______ _____ _____    ______ ____
ROOT
ATOM      1  S   UNL     1       2.293   4.061   0.000  0.00  0.00    -0.047 S 
ATOM      2  C   UNL     1       3.793   4.061   0.000  0.00  0.00    +0.083 C 
ATOM      3  C   UNL     1       4.853   3.000   0.000  0.00  0.00    +0.050 C 
ATOM      6  C   UNL     1       5.914   4.061   0.000  0.00  0.00    +0.092 C 
ATOM     10  C   UNL     1       4.853   5.121   0.000  0.00  0.00    +0.216 C 
ATOM     11  O   UNL     1       4.853   6.621   0.000  0.00  0.00    -0.285 OA
ENDROOT
BRANCH   6   7
ATOM      7  N   UNL     1       7.414   4.061   0.000  0.00  0.00    -0.332 N 
ATOM      8  C   UNL     1       8.164   5.360   0.000  0.00  0.00    +0.129 C 
ATOM      9  C   UNL     1       8.164   2.762   0.000  0.00  0.00    +0.129 C 
ENDBRANCH   6   7
BRANCH   3   4
ATOM      4  S   UNL     1       4.853   1.500   0.000  0.00  0.00    -0.125 S 
ATOM      5  C   UNL     1       6.152   0.750   0.000  0.00  0.00    +0.090 C 
ENDBRANCH   3   4
TORSDOF 2