REMARK  Name = 36525
REMARK  9 active torsions:
REMARK  status: ('A' for Active; 'I' for Inactive)
REMARK    1  A    between atoms: N_1  and  C_25
REMARK    2  A    between atoms: N_3  and  C_20
REMARK    3  A    between atoms: C_8  and  C_9
REMARK    4  A    between atoms: C_9  and  O_10
REMARK    5  A    between atoms: O_10  and  C_11
REMARK    6  A    between atoms: C_14  and  C_17
REMARK    7  A    between atoms: C_17  and  C_22
REMARK    8  A    between atoms: C_17  and  C_23
REMARK    9  A    between atoms: C_17  and  C_24
REMARK                            x       y       z     vdW  Elec       q    Type
REMARK                         _______ _______ _______ _____ _____    ______ ____
ROOT
ATOM      1  N   UNL     1     -15.406  -3.000   0.000  0.00  0.00    -0.262 N 
ATOM      2  C   UNL     1     -16.705  -2.250   0.000  0.00  0.00    +0.157 C 
ATOM      3  C   UNL     1     -14.107  -2.250   0.000  0.00  0.00    +0.282 A 
ATOM      4  O   UNL     1     -14.107  -0.750   0.000  0.00  0.00    -0.265 OA
ATOM      5  C   UNL     1     -12.808  -3.000   0.000  0.00  0.00    +0.149 A 
ATOM      6  N   UNL     1     -11.382  -2.537   0.000  0.00  0.00    -0.334 N 
ATOM      7  H   UNL     1     -11.077  -1.600   0.000  0.00  0.00    +0.167 HD
ATOM      8  C   UNL     1     -10.500  -3.750   0.000  0.00  0.00    +0.148 A 
ATOM     21  N   UNL     1     -11.382  -4.963   0.000  0.00  0.00    -0.211 NA
ATOM     22  C   UNL     1     -12.808  -4.500   0.000  0.00  0.00    +0.168 A 
ATOM     23  N   UNL     1     -14.107  -5.250   0.000  0.00  0.00    -0.280 N 
ATOM     24  C   UNL     1     -14.107  -6.750   0.000  0.00  0.00    +0.155 C 
ATOM     25  C   UNL     1     -15.406  -4.500   0.000  0.00  0.00    +0.333 A 
ATOM     26  O   UNL     1     -16.705  -5.250   0.000  0.00  0.00    -0.246 OA
ENDROOT
BRANCH   8   9
ATOM      9  C   UNL     1      -9.000  -3.750   0.000  0.00  0.00    +0.303 C 
BRANCH   9  10
ATOM     10  O   UNL     1      -8.250  -5.049   0.000  0.00  0.00    -0.484 OA
BRANCH  10  11
ATOM     11  C   UNL     1      -6.750  -5.049   0.000  0.00  0.00    +0.121 A 
ATOM     12  C   UNL     1      -6.000  -3.750   0.000  0.00  0.00    +0.046 A 
ATOM     13  C   UNL     1      -4.500  -3.750   0.000  0.00  0.00    +0.008 A 
ATOM     14  C   UNL     1      -3.750  -5.049   0.000  0.00  0.00    -0.042 A 
ATOM     19  C   UNL     1      -4.500  -6.348   0.000  0.00  0.00    +0.008 A 
ATOM     20  C   UNL     1      -6.000  -6.348   0.000  0.00  0.00    +0.046 A 
BRANCH  14  15
ATOM     15  C   UNL     1      -2.250  -5.049   0.000  0.00  0.00    -0.013 C 
ATOM     16  C   UNL     1      -1.500  -6.348   0.000  0.00  0.00    +0.015 C 
ATOM     17  C   UNL     1      -0.750  -5.049   0.000  0.00  0.00    +0.015 C 
ATOM     18  C   UNL     1      -1.500  -3.750   0.000  0.00  0.00    +0.015 C 
ENDBRANCH  14  15
ENDBRANCH  10  11
ENDBRANCH   9  10
ENDBRANCH   8   9
TORSDOF 4