REMARK  Name = 36753
REMARK  6 active torsions:
REMARK  status: ('A' for Active; 'I' for Inactive)
REMARK    1  A    between atoms: N_4  and  C_11
REMARK    2  A    between atoms: C_7  and  C_21
REMARK    3  A    between atoms: C_16  and  C_17
REMARK    4  A    between atoms: C_16  and  O_18
REMARK    5  A    between atoms: O_18  and  C_19
REMARK    6  A    between atoms: C_19  and  C_21
REMARK                            x       y       z     vdW  Elec       q    Type
REMARK                         _______ _______ _______ _____ _____    ______ ____
ROOT
ATOM      1  O   UNL     1       8.544   6.750   0.000  0.00  0.00    -0.266 OA
ATOM      2  C   UNL     1       8.544   5.250   0.000  0.00  0.00    +0.274 A 
ATOM      3  C   UNL     1       7.245   4.500   0.000  0.00  0.00    +0.035 A 
ATOM     10  C   UNL     1       7.245   3.000   0.000  0.00  0.00    +0.081 A 
ATOM     11  C   UNL     1       8.544   2.250   0.000  0.00  0.00    +0.264 A 
ATOM     12  N   UNL     1       9.843   3.000   0.000  0.00  0.00    -0.256 N 
ATOM     13  H   UNL     1      11.142   2.250   0.000  0.00  0.00    +0.191 HD
ATOM     14  O   UNL     1       8.544   0.750   0.000  0.00  0.00    -0.266 OA
ATOM     15  N   UNL     1       9.843   4.500   0.000  0.00  0.00    -0.217 N 
ENDROOT
BRANCH  15  16
ATOM     16  C   UNL     1      11.142   5.250   0.000  0.00  0.00    +0.067 A 
ATOM     17  C   UNL     1      12.441   4.500   0.000  0.00  0.00    +0.028 A 
ATOM     18  C   UNL     1      13.740   5.250   0.000  0.00  0.00    +0.002 A 
ATOM     19  C   UNL     1      13.740   6.750   0.000  0.00  0.00    +0.000 A 
ATOM     20  C   UNL     1      12.441   7.500   0.000  0.00  0.00    +0.002 A 
ATOM     21  C   UNL     1      11.142   6.750   0.000  0.00  0.00    +0.028 A 
ENDBRANCH  15  16
BRANCH   3   4
ATOM      4  C   UNL     1       5.946   5.250   0.000  0.00  0.00    +0.161 C 
BRANCH   4   5
ATOM      5  C   UNL     1       4.647   4.500   0.000  0.00  0.00    +0.312 C 
ATOM      6  O   UNL     1       4.647   3.000   0.000  0.00  0.00    -0.250 OA
BRANCH   5   7
ATOM      7  O   UNL     1       3.348   5.250   0.000  0.00  0.00    -0.465 OA
BRANCH   7   8
ATOM      8  C   UNL     1       2.049   4.500   0.000  0.00  0.00    +0.229 C 
ATOM      9  C   UNL     1       0.750   5.250   0.000  0.00  0.00    +0.048 C 
ENDBRANCH   7   8
ENDBRANCH   5   7
ENDBRANCH   4   5
ENDBRANCH   3   4
TORSDOF 5