REMARK  Name = 367428
REMARK  5 active torsions:
REMARK  status: ('A' for Active; 'I' for Inactive)
REMARK    1  A    between atoms: C_9  and  O_11
REMARK    2  A    between atoms: C_10  and  C_14
REMARK    3  A    between atoms: O_11  and  C_16
REMARK    4  A    between atoms: C_14  and  O_15
REMARK    5  A    between atoms: O_15  and  C_17
REMARK                            x       y       z     vdW  Elec       q    Type
REMARK                         _______ _______ _______ _____ _____    ______ ____
ROOT
ATOM      1  H   UNL     1      -1.025   6.274   0.000  0.00  0.00    +0.159 HD
ATOM      2  N   UNL     1       0.275   5.524   0.000  0.00  0.00    -0.237 N 
ATOM      3  C   UNL     1       0.275   4.024   0.000  0.00  0.00    +0.308 C 
ATOM      4  N   UNL     1       1.574   3.275   0.000  0.00  0.00    -0.270 N 
ATOM      5  H   UNL     1       1.574   1.775   0.000  0.00  0.00    +0.153 HD
ATOM      6  C   UNL     1       2.873   4.024   0.000  0.00  0.00    +0.264 C 
ATOM      9  C   UNL     1       2.873   5.524   0.000  0.00  0.00    +0.323 C 
ATOM     14  F   UNL     1       3.386   6.934   0.000  0.00  0.00    -0.215 F 
ATOM     15  O   UNL     1      -1.025   3.275   0.000  0.00  0.00    -0.252 OA
ATOM     16  C   UNL     1       1.574   6.274   0.000  0.00  0.00    +0.273 C 
ATOM     17  O   UNL     1       1.574   7.774   0.000  0.00  0.00    -0.271 OA
ENDROOT
BRANCH   6   7
ATOM      7  O   UNL     1       4.172   3.275   0.000  0.00  0.00    -0.358 OA
ATOM      8  C   UNL     1       4.172   1.775   0.000  0.00  0.00    +0.196 C 
ENDBRANCH   6   7
BRANCH   9  10
ATOM     10  C   UNL     1       4.350   5.264   0.000  0.00  0.00    +0.358 C 
ATOM     13  O   UNL     1       4.863   3.854   0.000  0.00  0.00    -0.246 OA
BRANCH  10  11
ATOM     11  O   UNL     1       5.314   6.413   0.000  0.00  0.00    -0.465 OA
ATOM     12  C   UNL     1       4.801   7.823   0.000  0.00  0.00    +0.280 C 
ENDBRANCH  10  11
ENDBRANCH   9  10
TORSDOF 3