REMARK  Name = 36923
REMARK  5 active torsions:
REMARK  status: ('A' for Active; 'I' for Inactive)
REMARK    1  A    between atoms: N_2  and  C_22
REMARK    2  A    between atoms: C_6  and  O_25
REMARK    3  A    between atoms: C_6  and  C_26
REMARK    4  A    between atoms: C_7  and  C_24
REMARK    5  A    between atoms: C_15  and  C_23
REMARK                            x       y       z     vdW  Elec       q    Type
REMARK                         _______ _______ _______ _____ _____    ______ ____
ROOT
ATOM      1  O   UNL     1      -5.691  -2.697   0.000  0.00  0.00    -0.275 OA
ATOM      2  C   UNL     1      -4.390  -1.950   0.000  0.00  0.00    +0.219 C 
ATOM      3  C   UNL     1      -4.385  -0.451   0.000  0.00  0.00    +0.097 C 
ATOM      4  C   UNL     1      -3.084   0.296   0.000  0.00  0.00    +0.022 C 
ATOM      5  C   UNL     1      -1.787  -0.458   0.000  0.00  0.00    +0.009 C 
ATOM      6  C   UNL     1      -1.783   1.042   0.000  0.00  0.00    +0.018 C 
ATOM      7  C   UNL     1      -1.792  -1.958   0.000  0.00  0.00    +0.015 C 
ATOM      8  C   UNL     1      -0.495  -2.712   0.000  0.00  0.00    -0.007 C 
ATOM      9  C   UNL     1       0.806  -1.966   0.000  0.00  0.00    +0.033 C 
ATOM     10  C   UNL     1       0.811  -0.466   0.000  0.00  0.00    +0.000 C 
ATOM     11  C   UNL     1       2.112   0.280   0.000  0.00  0.00    +0.001 C 
ATOM     12  C   UNL     1       3.538  -0.188   0.000  0.00  0.00    +0.007 C 
ATOM     13  C   UNL     1       4.423   1.023   0.000  0.00  0.00    +0.035 C 
ATOM     14  C   UNL     1       3.545   2.240   0.000  0.00  0.00    +0.069 C 
ATOM     15  C   UNL     1       4.846   2.986   0.000  0.00  0.00    +0.042 C 
ATOM     18  C   UNL     1       2.117   1.780   0.000  0.00  0.00    -0.000 C 
ATOM     19  C   UNL     1       2.017   3.277   0.000  0.00  0.00    +0.014 C 
ATOM     20  C   UNL     1       0.820   2.534   0.000  0.00  0.00    +0.010 C 
ATOM     21  C   UNL     1      -0.481   1.788   0.000  0.00  0.00    +0.005 C 
ATOM     22  C   UNL     1      -0.486   0.288   0.000  0.00  0.00    +0.004 C 
ATOM     23  N   UNL     1      -3.093  -2.704   0.000  0.00  0.00    -0.278 N 
ATOM     24  C   UNL     1      -3.097  -4.204   0.000  0.00  0.00    +0.138 C 
ENDROOT
BRANCH  14  16
ATOM     16  O   UNL     1       2.939   3.612   0.000  0.00  0.00    -0.388 OA
ATOM     17  H   UNL     1       3.511   4.395   0.000  0.00  0.00    +0.210 HD
ENDBRANCH  14  16
TORSDOF 1