REMARK  Name = 361570
REMARK  4 active torsions:
REMARK  status: ('A' for Active; 'I' for Inactive)
REMARK    1  A    between atoms: S_1  and  C_3
REMARK    2  A    between atoms: S_1  and  C_14
REMARK    3  A    between atoms: C_6  and  C_8
REMARK    4  A    between atoms: C_13  and  N_17
REMARK                            x       y       z     vdW  Elec       q    Type
REMARK                         _______ _______ _______ _____ _____    ______ ____
ROOT
ATOM      3  C   UNL     1       3.000   2.049   0.000  0.00  0.00    +0.279 C 
ATOM      4  N   UNL     1       4.500   2.049   0.000  0.00  0.00    -0.231 N 
ATOM      5  H   UNL     1       4.992   1.196   0.000  0.00  0.00    +0.160 HD
ATOM      6  C   UNL     1       5.250   3.348   0.000  0.00  0.00    +0.313 C 
ATOM      7  N   UNL     1       6.750   3.348   0.000  0.00  0.00    -0.236 N 
ATOM      8  H   UNL     1       7.242   2.495   0.000  0.00  0.00    +0.159 HD
ATOM      9  C   UNL     1       7.500   4.647   0.000  0.00  0.00    +0.251 C 
ATOM     19  O   UNL     1       6.750   5.946   0.000  0.00  0.00    -0.270 OA
ATOM     20  O   UNL     1       4.500   4.647   0.000  0.00  0.00    -0.252 OA
ATOM     21  O   UNL     1       2.250   3.348   0.000  0.00  0.00    -0.263 OA
ENDROOT
BRANCH   9  10
ATOM     10  C   UNL     1       9.000   4.647   0.000  0.00  0.00    +0.038 A 
ATOM     11  C   UNL     1       9.750   3.348   0.000  0.00  0.00    +0.019 A 
ATOM     12  C   UNL     1      11.250   3.348   0.000  0.00  0.00    +0.085 A 
ATOM     13  C   UNL     1      12.000   4.647   0.000  0.00  0.00    +0.273 A 
ATOM     17  C   UNL     1      11.250   5.946   0.000  0.00  0.00    +0.085 A 
ATOM     18  C   UNL     1       9.750   5.946   0.000  0.00  0.00    +0.019 A 
BRANCH  13  14
ATOM     14  N   UNL     1      13.500   4.647   0.000  0.00  0.00    +0.080 N 
ATOM     15  O   UNL     1      14.250   3.348   0.000  0.00  0.00    +0.041 OA
ATOM     16  O   UNL     1      14.250   5.946   0.000  0.00  0.00    -0.576 OA
ENDBRANCH  13  14
ENDBRANCH   9  10
BRANCH   3   1
ATOM      1  S   UNL     1       2.250   0.750   0.000  0.00  0.00    -0.071 S 
ATOM      2  C   UNL     1       0.750   0.750   0.000  0.00  0.00    +0.094 C 
ENDBRANCH   3   1
TORSDOF 3