REMARK  Name = 36520
REMARK  6 active torsions:
REMARK  status: ('A' for Active; 'I' for Inactive)
REMARK    1  A    between atoms: N_2  and  C_12
REMARK    2  A    between atoms: N_3  and  C_13
REMARK    3  A    between atoms: N_5  and  C_14
REMARK    4  A    between atoms: C_10  and  C_15
REMARK    5  A    between atoms: C_15  and  O_16
REMARK    6  A    between atoms: C_15  and  C_17
REMARK                            x       y       z     vdW  Elec       q    Type
REMARK                         _______ _______ _______ _____ _____    ______ ____
ROOT
ATOM      1  O   UNL     1       0.750   2.250   0.000  0.00  0.00    -0.246 OA
ATOM      2  C   UNL     1       2.049   3.000   0.000  0.00  0.00    +0.333 A 
ATOM      3  N   UNL     1       3.348   2.250   0.000  0.00  0.00    -0.280 N 
ATOM      4  C   UNL     1       3.348   0.750   0.000  0.00  0.00    +0.155 C 
ATOM      5  C   UNL     1       4.647   3.000   0.000  0.00  0.00    +0.168 A 
ATOM      6  C   UNL     1       4.647   4.500   0.000  0.00  0.00    +0.151 A 
ATOM      7  C   UNL     1       3.348   5.250   0.000  0.00  0.00    +0.282 A 
ATOM      8  O   UNL     1       3.348   6.750   0.000  0.00  0.00    -0.265 OA
ATOM      9  N   UNL     1       6.074   4.963   0.000  0.00  0.00    -0.323 N 
ATOM     10  C   UNL     1       6.537   6.390   0.000  0.00  0.00    +0.151 C 
ATOM     11  C   UNL     1       6.955   3.750   0.000  0.00  0.00    +0.141 A 
ATOM     16  N   UNL     1       6.074   2.537   0.000  0.00  0.00    -0.212 NA
ATOM     17  N   UNL     1       2.049   4.500   0.000  0.00  0.00    -0.262 N 
ATOM     18  C   UNL     1       0.750   5.250   0.000  0.00  0.00    +0.157 C 
ENDROOT
BRANCH  11  12
ATOM     12  C   UNL     1       8.455   3.750   0.000  0.00  0.00    +0.177 C 
ATOM     13  C   UNL     1       9.205   5.049   0.000  0.00  0.00    +0.046 C 
BRANCH  12  14
ATOM     14  O   UNL     1       9.205   2.451   0.000  0.00  0.00    -0.384 OA
ATOM     15  H   UNL     1       8.720   1.611   0.000  0.00  0.00    +0.210 HD
ENDBRANCH  12  14
ENDBRANCH  11  12
TORSDOF 2