REMARK  Name = 354844
REMARK  12 active torsions:
REMARK  status: ('A' for Active; 'I' for Inactive)
REMARK    1  A    between atoms: C_2  and  C_19
REMARK    2  A    between atoms: C_6  and  O_33
REMARK    3  A    between atoms: C_13  and  O_35
REMARK    4  A    between atoms: C_15  and  C_26
REMARK    5  A    between atoms: C_18  and  O_37
REMARK    6  A    between atoms: C_21  and  O_27
REMARK    7  A    between atoms: C_22  and  C_29
REMARK    8  A    between atoms: C_23  and  O_28
REMARK    9  A    between atoms: C_23  and  C_30
REMARK   10  A    between atoms: C_25  and  O_31
REMARK   11  A    between atoms: O_33  and  C_34
REMARK   12  A    between atoms: O_35  and  C_36
REMARK                            x       y       z     vdW  Elec       q    Type
REMARK                         _______ _______ _______ _____ _____    ______ ____
ROOT
ATOM      1  C   UNL     1       3.736   1.709   0.000  0.00  0.00    +0.054 A 
ATOM      2  C   UNL     1       5.035   2.459   0.000  0.00  0.00    +0.129 A 
ATOM      5  C   UNL     1       6.334   1.709   0.000  0.00  0.00    +0.041 A 
ATOM      6  C   UNL     1       7.633   2.459   0.000  0.00  0.00    +0.033 A 
ATOM      7  C   UNL     1       7.633   3.959   0.000  0.00  0.00    +0.058 A 
ATOM      8  C   UNL     1       8.932   4.709   0.000  0.00  0.00    +0.132 A 
ATOM     11  C   UNL     1      10.231   3.959   0.000  0.00  0.00    +0.069 A 
ATOM     12  C   UNL     1      11.530   4.709   0.000  0.00  0.00    +0.128 A 
ATOM     15  C   UNL     1      12.829   3.959   0.000  0.00  0.00    +0.046 A 
ATOM     16  C   UNL     1      12.829   2.459   0.000  0.00  0.00    +0.010 A 
ATOM     17  C   UNL     1      11.530   1.709   0.000  0.00  0.00    -0.005 A 
ATOM     32  C   UNL     1      10.231   2.459   0.000  0.00  0.00    +0.038 A 
ATOM     33  C   UNL     1       8.932   1.709   0.000  0.00  0.00    +0.148 A 
ATOM     34  O   UNL     1       8.932   0.209   0.000  0.00  0.00    -0.421 OA
ATOM     35  C   UNL     1       7.633  -0.541   0.000  0.00  0.00    +0.345 A 
ATOM     36  O   UNL     1       7.633  -2.041   0.000  0.00  0.00    -0.245 OA
ATOM     37  C   UNL     1       6.334   0.209   0.000  0.00  0.00    +0.071 A 
ATOM     38  C   UNL     1       5.035  -0.541   0.000  0.00  0.00    +0.023 A 
ATOM     39  C   UNL     1       3.736   0.209   0.000  0.00  0.00    -0.021 A 
ENDROOT
BRANCH  17  18
ATOM     18  C   UNL     1      11.530   0.209   0.000  0.00  0.00    +0.181 C 
ATOM     19  C   UNL     1      12.829  -0.541   0.000  0.00  0.00    +0.181 C 
ATOM     22  C   UNL     1      12.829  -2.041   0.000  0.00  0.00    +0.120 C 
ATOM     23  C   UNL     1      11.530  -1.291   0.000  0.00  0.00    +0.047 C 
ATOM     26  C   UNL     1      11.530  -2.791   0.000  0.00  0.00    +0.177 C 
ATOM     29  C   UNL     1      10.231  -2.041   0.000  0.00  0.00    +0.147 C 
ATOM     30  C   UNL     1       8.932  -2.791   0.000  0.00  0.00    +0.040 C 
ATOM     31  O   UNL     1      10.231  -0.541   0.000  0.00  0.00    -0.364 OA
BRANCH  19  20
ATOM     20  O   UNL     1      14.128   0.209   0.000  0.00  0.00    -0.386 OA
ATOM     21  H   UNL     1      14.968  -0.276   0.000  0.00  0.00    +0.210 HD
ENDBRANCH  19  20
BRANCH  22  24
ATOM     24  O   UNL     1      14.128  -2.791   0.000  0.00  0.00    -0.384 OA
ATOM     25  H   UNL     1      14.128  -3.761   0.000  0.00  0.00    +0.210 HD
ENDBRANCH  22  24
BRANCH  26  27
ATOM     27  O   UNL     1      11.530  -4.291   0.000  0.00  0.00    -0.386 OA
ATOM     28  H   UNL     1      10.690  -4.776   0.000  0.00  0.00    +0.210 HD
ENDBRANCH  26  27
ENDBRANCH  17  18
BRANCH   2   3
ATOM      3  O   UNL     1       5.035   3.959   0.000  0.00  0.00    -0.494 OA
ATOM      4  C   UNL     1       3.736   4.709   0.000  0.00  0.00    +0.277 C 
ENDBRANCH   2   3
BRANCH   8   9
ATOM      9  O   UNL     1       8.932   6.209   0.000  0.00  0.00    -0.494 OA
ATOM     10  C   UNL     1       7.633   6.959   0.000  0.00  0.00    +0.277 C 
ENDBRANCH   8   9
BRANCH  12  13
ATOM     13  O   UNL     1      11.530   6.209   0.000  0.00  0.00    -0.506 OA
ATOM     14  H   UNL     1      12.342   6.677   0.000  0.00  0.00    +0.292 HD
ENDBRANCH  12  13
BRANCH  39  40
ATOM     40  C   UNL     1       2.437  -0.541   0.000  0.00  0.00    +0.000 C 
ATOM     41  C   UNL     1       1.138   0.209   0.000  0.00  0.00    +0.009 C 
ENDBRANCH  39  40
TORSDOF 8