REMARK  Name = 367416
REMARK  2 active torsions:
REMARK  status: ('A' for Active; 'I' for Inactive)
REMARK    1  A    between atoms: O_1  and  C_3
REMARK    2  A    between atoms: O_1  and  C_21
REMARK                            x       y       z     vdW  Elec       q    Type
REMARK                         _______ _______ _______ _____ _____    ______ ____
ROOT
ATOM      3  C   UNL     1       3.348   1.500   0.000  0.00  0.00    +0.216 A 
ATOM      4  N   UNL     1       4.647   0.750   0.000  0.00  0.00    -0.204 NA
ATOM      5  C   UNL     1       5.946   1.500   0.000  0.00  0.00    +0.128 A 
ATOM      6  S   UNL     1       7.245   0.750   0.000  0.00  0.00    -0.045 S 
ATOM      7  C   UNL     1       8.544   1.500   0.000  0.00  0.00    +0.144 A 
ATOM      8  N   UNL     1       9.843   0.750   0.000  0.00  0.00    -0.235 NA
ATOM      9  C   UNL     1      11.142   1.500   0.000  0.00  0.00    +0.091 A 
ATOM     10  C   UNL     1      12.441   0.750   0.000  0.00  0.00    +0.030 A 
ATOM     11  C   UNL     1      13.740   1.500   0.000  0.00  0.00    +0.002 A 
ATOM     12  C   UNL     1      13.740   3.000   0.000  0.00  0.00    +0.002 A 
ATOM     13  C   UNL     1      12.441   3.750   0.000  0.00  0.00    +0.030 A 
ATOM     14  C   UNL     1      11.142   3.000   0.000  0.00  0.00    +0.091 A 
ATOM     15  N   UNL     1       9.843   3.750   0.000  0.00  0.00    -0.228 NA
ATOM     16  C   UNL     1       8.544   3.000   0.000  0.00  0.00    +0.156 A 
ATOM     17  N   UNL     1       7.245   3.750   0.000  0.00  0.00    -0.295 N 
ATOM     18  H   UNL     1       7.245   5.250   0.000  0.00  0.00    +0.154 HD
ATOM     19  C   UNL     1       5.946   3.000   0.000  0.00  0.00    +0.065 A 
ATOM     20  C   UNL     1       4.647   3.750   0.000  0.00  0.00    +0.031 A 
ATOM     21  C   UNL     1       3.348   3.000   0.000  0.00  0.00    +0.069 A 
ENDROOT
BRANCH   3   1
ATOM      1  O   UNL     1       2.049   0.750   0.000  0.00  0.00    -0.480 OA
ATOM      2  C   UNL     1       0.750   1.500   0.000  0.00  0.00    +0.279 C 
ENDBRANCH   3   1
TORSDOF 1