REMARK  Name = 36425
REMARK  7 active torsions:
REMARK  status: ('A' for Active; 'I' for Inactive)
REMARK    1  A    between atoms: C_2  and  C_9
REMARK    2  A    between atoms: C_3  and  C_10
REMARK    3  A    between atoms: C_3  and  C_16
REMARK    4  A    between atoms: C_6  and  N_11
REMARK    5  A    between atoms: N_11  and  C_12
REMARK    6  A    between atoms: C_12  and  N_14
REMARK    7  A    between atoms: N_14  and  N_15
REMARK                            x       y       z     vdW  Elec       q    Type
REMARK                         _______ _______ _______ _____ _____    ______ ____
ROOT
ATOM      1  O   UNL     1      -4.178  -0.826   0.000  0.00  0.00    -0.295 OA
ATOM      2  C   UNL     1      -5.477  -1.576   0.000  0.00  0.00    +0.160 C 
ATOM      3  C   UNL     1      -5.477  -3.076   0.000  0.00  0.00    +0.142 C 
ATOM     13  C   UNL     1      -6.776  -3.826   0.000  0.00  0.00    +0.023 C 
ATOM     14  C   UNL     1      -8.075  -3.076   0.000  0.00  0.00    +0.007 C 
ATOM     15  C   UNL     1      -8.075  -1.576   0.000  0.00  0.00    +0.015 C 
ATOM     16  C   UNL     1      -5.910  -2.326   0.000  0.00  0.00    -0.018 C 
ATOM     17  C   UNL     1      -4.761  -1.362   0.000  0.00  0.00    +0.012 C 
ATOM     18  C   UNL     1      -4.761  -3.291   0.000  0.00  0.00    +0.012 C 
ATOM     19  C   UNL     1      -6.776  -0.826   0.000  0.00  0.00    +0.033 C 
ATOM     20  C   UNL     1      -6.776   0.674   0.000  0.00  0.00    +0.020 C 
ENDROOT
BRANCH   3   4
ATOM      4  N   UNL     1      -4.178  -3.826   0.000  0.00  0.00    -0.316 N 
ATOM      5  H   UNL     1      -4.178  -4.811   0.000  0.00  0.00    +0.148 HD
BRANCH   4   6
ATOM      6  C   UNL     1      -2.879  -3.076   0.000  0.00  0.00    +0.144 C 
ATOM     12  S   UNL     1      -1.580  -3.826   0.000  0.00  0.00    -0.018 S 
BRANCH   6   7
ATOM      7  N   UNL     1      -2.879  -1.576   0.000  0.00  0.00    -0.265 N 
ATOM      8  H   UNL     1      -3.732  -1.084   0.000  0.00  0.00    +0.168 HD
BRANCH   7   9
ATOM      9  N   UNL     1      -1.580  -0.826   0.000  0.00  0.00    -0.255 NA
ATOM     10  H   UNL     1      -1.580   0.194   0.000  0.00  0.00    +0.140 HD
ATOM     11  H   UNL     1      -0.697  -1.336   0.000  0.00  0.00    +0.140 HD
ENDBRANCH   7   9
ENDBRANCH   6   7
ENDBRANCH   4   6
ENDBRANCH   3   4
TORSDOF 4