REMARK  Name = 362639
REMARK  4 active torsions:
REMARK  status: ('A' for Active; 'I' for Inactive)
REMARK    1  A    between atoms: C_5  and  C_12
REMARK    2  A    between atoms: C_6  and  N_10
REMARK    3  A    between atoms: C_20  and  C_26
REMARK    4  A    between atoms: C_26  and  O_28
REMARK                            x       y       z     vdW  Elec       q    Type
REMARK                         _______ _______ _______ _____ _____    ______ ____
ROOT
ATOM      1  C   UNL     1       0.750  -6.060   0.000  0.00  0.00    +0.001 A 
ATOM      2  C   UNL     1       0.750  -7.560   0.000  0.00  0.00    +0.002 A 
ATOM      3  C   UNL     1       2.049  -8.310   0.000  0.00  0.00    +0.028 A 
ATOM      4  C   UNL     1       3.348  -7.560   0.000  0.00  0.00    +0.080 A 
ATOM     18  C   UNL     1       3.348  -6.060   0.000  0.00  0.00    +0.033 A 
ATOM     29  C   UNL     1       2.049  -5.310   0.000  0.00  0.00    +0.012 A 
ENDROOT
BRANCH  18  19
ATOM     19  C   UNL     1       5.492  -4.823   0.000  0.00  0.00    +0.157 A 
ATOM     20  N   UNL     1       6.790  -5.573   0.000  0.00  0.00    -0.164 NA
ATOM     21  N   UNL     1       8.090  -4.823   0.000  0.00  0.00    -0.228 N 
ATOM     22  H   UNL     1       9.389  -5.573   0.000  0.00  0.00    +0.194 HD
ATOM     23  C   UNL     1       8.090  -3.323   0.000  0.00  0.00    +0.343 A 
ATOM     24  O   UNL     1       9.389  -2.573   0.000  0.00  0.00    -0.245 OA
ATOM     25  N   UNL     1       6.790  -2.573   0.000  0.00  0.00    -0.272 N 
ATOM     26  H   UNL     1       6.790  -1.073   0.000  0.00  0.00    +0.174 HD
ATOM     27  C   UNL     1       5.492  -3.323   0.000  0.00  0.00    +0.280 A 
ATOM     28  O   UNL     1       4.192  -2.573   0.000  0.00  0.00    -0.265 OA
ENDBRANCH  18  19
BRANCH   4   5
ATOM      5  N   UNL     1       4.647  -8.310   0.000  0.00  0.00    -0.180 N 
ATOM      6  C   UNL     1       4.647  -9.810   0.000  0.00  0.00    +0.350 A 
ATOM      7  N   UNL     1       5.946 -10.560   0.000  0.00  0.00    -0.272 N 
ATOM      8  H   UNL     1       5.946 -12.060   0.000  0.00  0.00    +0.174 HD
ATOM      9  C   UNL     1       7.245  -9.810   0.000  0.00  0.00    +0.287 A 
ATOM     10  O   UNL     1       8.544 -10.560   0.000  0.00  0.00    -0.265 OA
ATOM     11  C   UNL     1       7.245  -8.310   0.000  0.00  0.00    +0.232 A 
ATOM     16  O   UNL     1       3.348 -10.560   0.000  0.00  0.00    -0.245 OA
ATOM     17  N   UNL     1       5.946  -7.560   0.000  0.00  0.00    -0.150 NA
BRANCH  11  12
ATOM     12  C   UNL     1       8.544  -7.560   0.000  0.00  0.00    +0.363 C 
ATOM     15  O   UNL     1       9.843  -8.310   0.000  0.00  0.00    -0.243 OA
BRANCH  12  13
ATOM     13  O   UNL     1       8.544  -6.060   0.000  0.00  0.00    -0.476 OA
ATOM     14  H   UNL     1       9.356  -5.592   0.000  0.00  0.00    +0.295 HD
ENDBRANCH  12  13
ENDBRANCH  11  12
ENDBRANCH   4   5
TORSDOF 4