REMARK  Name = 35964
REMARK  4 active torsions:
REMARK  status: ('A' for Active; 'I' for Inactive)
REMARK    1  A    between atoms: N_2  and  C_12
REMARK    2  A    between atoms: C_12  and  O_13
REMARK    3  A    between atoms: O_13  and  C_14
REMARK    4  A    between atoms: N_16  and  C_17
REMARK                            x       y       z     vdW  Elec       q    Type
REMARK                         _______ _______ _______ _____ _____    ______ ____
ROOT
ATOM      1  O   UNL     1       3.118   7.354   0.000  0.00  0.00    -0.275 OA
ATOM      2  C   UNL     1       3.118   5.854   0.000  0.00  0.00    +0.228 C 
ATOM      3  C   UNL     1       1.905   4.972   0.000  0.00  0.00    +0.091 C 
ATOM      4  C   UNL     1       2.368   3.546   0.000  0.00  0.00    +0.091 C 
ATOM      5  C   UNL     1       1.365   2.431   0.000  0.00  0.00    +0.040 C 
ATOM      6  C   UNL     1      -0.103   2.743   0.000  0.00  0.00    -0.030 C 
ATOM      7  C   UNL     1      -0.566   4.169   0.000  0.00  0.00    -0.030 C 
ATOM      8  C   UNL     1       3.868   3.546   0.000  0.00  0.00    +0.228 C 
ATOM      9  O   UNL     1       4.750   2.332   0.000  0.00  0.00    -0.275 OA
ATOM     10  C   UNL     1       0.438   5.284   0.000  0.00  0.00    +0.040 C 
ATOM     11  N   UNL     1       4.332   4.972   0.000  0.00  0.00    -0.207 N 
ENDROOT
BRANCH  11  12
ATOM     12  C   UNL     1       5.758   5.436   0.000  0.00  0.00    +0.353 C 
BRANCH  12  13
ATOM     13  O   UNL     1       6.873   4.432   0.000  0.00  0.00    -0.430 OA
BRANCH  13  14
ATOM     14  C   UNL     1       8.300   4.896   0.000  0.00  0.00    +0.402 C 
ATOM     15  N   UNL     1       8.612   6.363   0.000  0.00  0.00    -0.284 N 
ATOM     16  H   UNL     1       9.548   6.667   0.000  0.00  0.00    +0.152 HD
ATOM     17  C   UNL     1       7.497   7.366   0.000  0.00  0.00    +0.131 C 
ATOM     18  O   UNL     1       9.415   3.892   0.000  0.00  0.00    -0.226 OA
ENDBRANCH  13  14
ENDBRANCH  12  13
ENDBRANCH  11  12
TORSDOF 3