REMARK  Name = 36818
REMARK  5 active torsions:
REMARK  status: ('A' for Active; 'I' for Inactive)
REMARK    1  A    between atoms: C_1  and  N_27
REMARK    2  A    between atoms: C_2  and  C_24
REMARK    3  A    between atoms: C_5  and  N_26
REMARK    4  A    between atoms: N_14  and  C_25
REMARK    5  A    between atoms: N_20  and  C_23
REMARK                            x       y       z     vdW  Elec       q    Type
REMARK                         _______ _______ _______ _____ _____    ______ ____
ROOT
ATOM      1  C   UNL     1     -11.142  -3.750   0.000  0.00  0.00    +0.039 A 
ATOM     13  C   UNL     1      -9.843  -3.000   0.000  0.00  0.00    +0.047 A 
ATOM     14  C   UNL     1      -8.544  -3.750   0.000  0.00  0.00    +0.037 A 
ATOM     26  C   UNL     1      -8.544  -5.250   0.000  0.00  0.00    +0.024 A 
ATOM     27  C   UNL     1      -9.843  -6.000   0.000  0.00  0.00    +0.007 A 
ATOM     28  C   UNL     1     -11.142  -5.250   0.000  0.00  0.00    -0.029 A 
ATOM     29  C   UNL     1     -12.441  -6.000   0.000  0.00  0.00    +0.045 C 
ENDROOT
BRANCH   1   2
ATOM      2  N   UNL     1     -12.441  -3.000   0.000  0.00  0.00    -0.269 N 
ATOM      3  H   UNL     1     -12.441  -2.016   0.000  0.00  0.00    +0.156 HD
ATOM      4  C   UNL     1     -13.740  -3.750   0.000  0.00  0.00    +0.307 C 
ATOM      5  N   UNL     1     -15.039  -3.000   0.000  0.00  0.00    -0.283 N 
ATOM      6  C   UNL     1     -16.339  -3.750   0.000  0.00  0.00    +0.124 C 
ATOM      7  C   UNL     1     -17.637  -3.000   0.000  0.00  0.00    +0.103 C 
ATOM      8  N   UNL     1     -17.637  -1.500   0.000  0.00  0.00    -0.302 NA
ATOM      9  C   UNL     1     -18.936  -0.750   0.000  0.00  0.00    +0.105 C 
ATOM     10  C   UNL     1     -16.339  -0.750   0.000  0.00  0.00    +0.103 C 
ATOM     11  C   UNL     1     -15.039  -1.500   0.000  0.00  0.00    +0.124 C 
ATOM     12  O   UNL     1     -13.740  -5.250   0.000  0.00  0.00    -0.252 OA
ENDBRANCH   1   2
BRANCH  14  15
ATOM     15  N   UNL     1      -7.245  -3.000   0.000  0.00  0.00    -0.269 N 
ATOM     16  H   UNL     1      -7.245  -2.016   0.000  0.00  0.00    +0.156 HD
ATOM     17  C   UNL     1      -5.946  -3.750   0.000  0.00  0.00    +0.307 C 
ATOM     18  N   UNL     1      -4.647  -3.000   0.000  0.00  0.00    -0.283 N 
ATOM     19  C   UNL     1      -4.647  -1.500   0.000  0.00  0.00    +0.124 C 
ATOM     20  C   UNL     1      -3.348  -0.750   0.000  0.00  0.00    +0.103 C 
ATOM     21  N   UNL     1      -2.049  -1.500   0.000  0.00  0.00    -0.302 NA
ATOM     22  C   UNL     1      -0.750  -0.750   0.000  0.00  0.00    +0.105 C 
ATOM     23  C   UNL     1      -2.049  -3.000   0.000  0.00  0.00    +0.103 C 
ATOM     24  C   UNL     1      -3.348  -3.750   0.000  0.00  0.00    +0.124 C 
ATOM     25  O   UNL     1      -5.946  -5.250   0.000  0.00  0.00    -0.252 OA
ENDBRANCH  14  15
TORSDOF 2