REMARK  Name = 366801
REMARK  7 active torsions:
REMARK  status: ('A' for Active; 'I' for Inactive)
REMARK    1  A    between atoms: C_3  and  C_5
REMARK    2  A    between atoms: N_6  and  C_18
REMARK    3  A    between atoms: C_7  and  N_22
REMARK    4  A    between atoms: C_11  and  N_23
REMARK    5  A    between atoms: C_18  and  C_19
REMARK    6  A    between atoms: C_18  and  C_20
REMARK    7  A    between atoms: C_18  and  C_21
REMARK                            x       y       z     vdW  Elec       q    Type
REMARK                         _______ _______ _______ _____ _____    ______ ____
ROOT
ATOM      7  N   UNL     1       7.809  -1.045   0.000  0.00  0.00    -0.254 N 
ATOM      8  H   UNL     1       8.794  -1.045   0.000  0.00  0.00    +0.158 HD
ATOM      9  C   UNL     1       7.059  -2.344   0.000  0.00  0.00    +0.309 C 
ATOM     10  N   UNL     1       7.809  -3.643   0.000  0.00  0.00    -0.269 N 
ATOM     11  H   UNL     1       7.317  -4.495   0.000  0.00  0.00    +0.156 HD
ATOM     19  O   UNL     1       5.559  -2.344   0.000  0.00  0.00    -0.252 OA
ENDROOT
BRANCH  10  12
ATOM     12  C   UNL     1       9.309  -3.643   0.000  0.00  0.00    +0.035 A 
ATOM     13  C   UNL     1      10.059  -4.942   0.000  0.00  0.00    +0.025 A 
ATOM     14  C   UNL     1      11.559  -4.942   0.000  0.00  0.00    +0.022 A 
ATOM     15  C   UNL     1      12.309  -3.643   0.000  0.00  0.00    +0.041 A 
ATOM     16 CL   UNL     1      13.809  -3.643   0.000  0.00  0.00    -0.084 Cl
ATOM     17  C   UNL     1      11.559  -2.344   0.000  0.00  0.00    +0.022 A 
ATOM     18  C   UNL     1      10.059  -2.344   0.000  0.00  0.00    +0.025 A 
ENDBRANCH  10  12
BRANCH   7   6
ATOM      4  C   UNL     1       5.255   1.879   0.000  0.00  0.00    +0.068 A 
ATOM      5  C   UNL     1       5.567   0.411   0.000  0.00  0.00    +0.068 A 
ATOM      6  C   UNL     1       7.059   0.255   0.000  0.00  0.00    +0.125 A 
ATOM     20  N   UNL     1       7.669   1.625   0.000  0.00  0.00    -0.245 N 
ATOM     25  N   UNL     1       6.555   2.629   0.000  0.00  0.00    -0.174 NA
BRANCH  20  21
ATOM     21  C   UNL     1       9.136   1.937   0.000  0.00  0.00    +0.057 C 
ATOM     22  C   UNL     1      10.604   2.249   0.000  0.00  0.00    +0.036 C 
ATOM     23  C   UNL     1       9.448   0.469   0.000  0.00  0.00    +0.036 C 
ATOM     24  C   UNL     1       8.825   3.404   0.000  0.00  0.00    +0.036 C 
ENDBRANCH  20  21
BRANCH   4   3
ATOM      1  C   UNL     1       3.003   3.702   0.000  0.00  0.00    +0.010 C 
ATOM      2  C   UNL     1       2.393   2.332   0.000  0.00  0.00    +0.010 C 
ATOM      3  C   UNL     1       3.885   2.489   0.000  0.00  0.00    +0.040 C 
ENDBRANCH   4   3
ENDBRANCH   7   6
TORSDOF 4