REMARK  Name = 37003
REMARK  6 active torsions:
REMARK  status: ('A' for Active; 'I' for Inactive)
REMARK    1  A    between atoms: C_2  and  N_7
REMARK    2  A    between atoms: C_3  and  S_11
REMARK    3  A    between atoms: C_5  and  C_10
REMARK    4  A    between atoms: S_11  and  N_14
REMARK    5  A    between atoms: N_14  and  C_15
REMARK    6  A    between atoms: N_14  and  C_16
REMARK                            x       y       z     vdW  Elec       q    Type
REMARK                         _______ _______ _______ _____ _____    ______ ____
ROOT
ATOM      1  C   UNL     1      -5.946  -3.000   0.000  0.00  0.00    +0.113 A 
ATOM      2  C   UNL     1      -7.245  -3.750   0.000  0.00  0.00    +0.278 A 
ATOM      6  C   UNL     1      -7.245  -5.250   0.000  0.00  0.00    +0.027 A 
ATOM      7  C   UNL     1      -8.544  -6.000   0.000  0.00  0.00    +0.051 C 
ATOM      8  C   UNL     1      -5.946  -6.000   0.000  0.00  0.00    +0.012 A 
ATOM      9  C   UNL     1      -4.647  -5.250   0.000  0.00  0.00    +0.029 A 
ATOM     10  C   UNL     1      -4.647  -3.750   0.000  0.00  0.00    +0.112 A 
ENDROOT
BRANCH   2   3
ATOM      3  N   UNL     1      -8.544  -3.000   0.000  0.00  0.00    +0.080 N 
ATOM      4  O   UNL     1      -8.544  -1.500   0.000  0.00  0.00    +0.041 OA
ATOM      5  O   UNL     1      -9.843  -3.750   0.000  0.00  0.00    -0.576 OA
ENDBRANCH   2   3
BRANCH  10  11
ATOM     11  S   UNL     1      -3.348  -3.000   0.000  0.00  0.00    +0.061 S 
ATOM     15  O   UNL     1      -2.598  -4.299   0.000  0.00  0.00    -0.153 OA
ATOM     16  O   UNL     1      -4.098  -1.701   0.000  0.00  0.00    -0.153 OA
BRANCH  11  12
ATOM     12  N   UNL     1      -2.049  -2.250   0.000  0.00  0.00    -0.183 NA
ATOM     13  C   UNL     1      -2.049  -0.750   0.000  0.00  0.00    +0.131 C 
ATOM     14  C   UNL     1      -0.750  -3.000   0.000  0.00  0.00    +0.131 C 
ENDBRANCH  11  12
ENDBRANCH  10  11
TORSDOF 3