REMARK  Name = 363801
REMARK  5 active torsions:
REMARK  status: ('A' for Active; 'I' for Inactive)
REMARK    1  A    between atoms: C_1  and  C_18
REMARK    2  A    between atoms: C_2  and  C_17
REMARK    3  A    between atoms: C_3  and  O_19
REMARK    4  A    between atoms: C_10  and  C_16
REMARK    5  A    between atoms: C_16  and  C_17
REMARK                            x       y       z     vdW  Elec       q    Type
REMARK                         _______ _______ _______ _____ _____    ______ ____
ROOT
ATOM      1  C   UNL     1      -4.500   4.647   0.000  0.00  0.00    +0.049 A 
ATOM      2  C   UNL     1      -5.250   3.348   0.000  0.00  0.00    +0.066 C 
ATOM      3  C   UNL     1      -3.000   4.647   0.000  0.00  0.00    +0.035 A 
ATOM     12  C   UNL     1      -2.250   5.946   0.000  0.00  0.00    +0.220 A 
ATOM     15  N   UNL     1      -3.000   7.245   0.000  0.00  0.00    -0.182 N 
ATOM     16  N   UNL     1      -2.537   8.672   0.000  0.00  0.00    -0.170 NA
ATOM     17  C   UNL     1      -3.750   9.553   0.000  0.00  0.00    +0.137 A 
ATOM     18  C   UNL     1      -4.963   8.672   0.000  0.00  0.00    +0.069 A 
ATOM     19  C   UNL     1      -4.500   7.245   0.000  0.00  0.00    +0.159 A 
ATOM     20  N   UNL     1      -5.250   5.946   0.000  0.00  0.00    -0.232 NA
ENDROOT
BRANCH  12  13
ATOM     13  O   UNL     1      -0.750   5.946   0.000  0.00  0.00    -0.492 OA
ATOM     14  H   UNL     1      -0.281   5.135   0.000  0.00  0.00    +0.294 HD
ENDBRANCH  12  13
BRANCH   3   4
ATOM      4  C   UNL     1      -2.250   3.348   0.000  0.00  0.00    +0.047 C 
BRANCH   4   5
ATOM      5  C   UNL     1      -3.263   1.594   0.000  0.00  0.00    +0.040 C 
BRANCH   5   6
ATOM      6  C   UNL     1      -5.287   1.594   0.000  0.00  0.00    -0.047 A 
ATOM      7  C   UNL     1      -4.537   0.295   0.000  0.00  0.00    +0.003 A 
ATOM      8  C   UNL     1      -3.038   0.295   0.000  0.00  0.00    +0.000 A 
ATOM      9  C   UNL     1      -2.288   1.594   0.000  0.00  0.00    +0.000 A 
ATOM     10  C   UNL     1      -3.038   2.893   0.000  0.00  0.00    +0.000 A 
ATOM     11  C   UNL     1      -4.537   2.893   0.000  0.00  0.00    +0.003 A 
ENDBRANCH   5   6
ENDBRANCH   4   5
ENDBRANCH   3   4
TORSDOF 4