REMARK  Name = 49643
REMARK  8 active torsions:
REMARK  status: ('A' for Active; 'I' for Inactive)
REMARK    1  A    between atoms: C_2  and  O_19
REMARK    2  A    between atoms: C_2  and  C_20
REMARK    3  A    between atoms: C_5  and  C_15
REMARK    4  A    between atoms: C_7  and  C_21
REMARK    5  A    between atoms: C_11  and  C_12
REMARK    6  A    between atoms: C_11  and  C_18
REMARK    7  A    between atoms: C_12  and  O_14
REMARK    8  A    between atoms: C_15  and  C_17
REMARK                            x       y       z     vdW  Elec       q    Type
REMARK                         _______ _______ _______ _____ _____    ______ ____
ROOT
ATOM      1  O   UNL     1       3.483  10.532   0.000  0.00  0.00    -0.289 OA
ATOM      2  C   UNL     1       2.184   9.782   0.000  0.00  0.00    +0.190 C 
ATOM      3  C   UNL     1       2.184   8.282   0.000  0.00  0.00    -0.009 C 
ATOM      4  C   UNL     1       3.483   7.532   0.000  0.00  0.00    +0.047 C 
ATOM      5  C   UNL     1       0.884   7.532   0.000  0.00  0.00    -0.015 C 
ATOM      6  C   UNL     1      -0.415   8.282   0.000  0.00  0.00    +0.040 C 
ATOM      7  C   UNL     1      -1.714   7.532   0.000  0.00  0.00    +0.089 C 
ATOM      8  C   UNL     1      -0.749   6.383   0.000  0.00  0.00    +0.028 C 
ATOM     13  C   UNL     1      -3.013   8.282   0.000  0.00  0.00    -0.012 C 
ATOM     14  C   UNL     1      -3.013   9.782   0.000  0.00  0.00    -0.019 C 
ATOM     15  C   UNL     1      -1.714  10.532   0.000  0.00  0.00    +0.084 C 
ATOM     19  C   UNL     1      -0.415   9.782   0.000  0.00  0.00    +0.050 C 
ATOM     20  C   UNL     1       0.884  10.532   0.000  0.00  0.00    +0.129 C 
ATOM     21  C   UNL     1       1.849  11.681   0.000  0.00  0.00    +0.050 C 
ENDROOT
BRANCH  15  16
ATOM     16  C   UNL     1      -1.714  12.032   0.000  0.00  0.00    +0.137 C 
ATOM     17  C   UNL     1      -0.415  12.782   0.000  0.00  0.00    +0.086 C 
ATOM     18  O   UNL     1      -3.013  12.782   0.000  0.00  0.00    -0.297 OA
ENDBRANCH  15  16
BRANCH   7   9
ATOM      9  C   UNL     1      -2.678   6.383   0.000  0.00  0.00    +0.315 C 
ATOM     12  O   UNL     1      -4.155   6.643   0.000  0.00  0.00    -0.250 OA
BRANCH   9  10
ATOM     10  O   UNL     1      -2.165   4.973   0.000  0.00  0.00    -0.480 OA
ATOM     11  H   UNL     1      -2.767   4.256   0.000  0.00  0.00    +0.295 HD
ENDBRANCH   9  10
ENDBRANCH   7   9
BRANCH  20  22
ATOM     22  O   UNL     1      -0.080  11.681   0.000  0.00  0.00    -0.381 OA
ATOM     23  H   UNL     1       0.252  12.593   0.000  0.00  0.00    +0.211 HD
ENDBRANCH  20  22
TORSDOF 4