REMARK  Name = 47496
REMARK  10 active torsions:
REMARK  status: ('A' for Active; 'I' for Inactive)
REMARK    1  A    between atoms: C_1  and  C_2
REMARK    2  A    between atoms: C_1  and  C_3
REMARK    3  A    between atoms: C_1  and  C_4
REMARK    4  A    between atoms: C_1  and  N_5
REMARK    5  A    between atoms: N_5  and  C_6
REMARK    6  A    between atoms: C_6  and  N_8
REMARK    7  A    between atoms: N_8  and  C_9
REMARK    8  A    between atoms: C_9  and  C_10
REMARK    9  A    between atoms: C_9  and  C_11
REMARK   10  A    between atoms: C_9  and  C_12
REMARK                            x       y       z     vdW  Elec       q    Type
REMARK                         _______ _______ _______ _____ _____    ______ ____
ROOT
ATOM      4  C   UNL     1       4.500  -4.614   0.000  0.00  0.00    +0.131 C 
ATOM     11  S   UNL     1       6.000  -4.614   0.000  0.00  0.00    -0.019 S 
ENDROOT
BRANCH   4   2
ATOM      2  N   UNL     1       3.750  -3.314   0.000  0.00  0.00    -0.322 N 
ATOM      3  H   UNL     1       2.766  -3.314   0.000  0.00  0.00    +0.148 HD
BRANCH   2   1
ATOM      1  C   UNL     1       4.500  -2.015   0.000  0.00  0.00    +0.025 C 
ATOM     12  C   UNL     1       5.799  -2.765   0.000  0.00  0.00    +0.031 C 
ATOM     13  C   UNL     1       5.250  -0.716   0.000  0.00  0.00    +0.031 C 
ATOM     14  C   UNL     1       3.201  -1.266   0.000  0.00  0.00    +0.031 C 
ENDBRANCH   2   1
ENDBRANCH   4   2
BRANCH   4   5
ATOM      5  N   UNL     1       3.750  -5.913   0.000  0.00  0.00    -0.322 N 
ATOM      6  H   UNL     1       4.242  -6.765   0.000  0.00  0.00    +0.148 HD
BRANCH   5   7
ATOM      7  C   UNL     1       2.250  -5.913   0.000  0.00  0.00    +0.025 C 
ATOM      8  C   UNL     1       2.250  -7.413   0.000  0.00  0.00    +0.031 C 
ATOM      9  C   UNL     1       0.750  -5.913   0.000  0.00  0.00    +0.031 C 
ATOM     10  C   UNL     1       2.250  -4.413   0.000  0.00  0.00    +0.031 C 
ENDBRANCH   5   7
ENDBRANCH   4   5
TORSDOF 4