REMARK  Name = 46273
REMARK  4 active torsions:
REMARK  status: ('A' for Active; 'I' for Inactive)
REMARK    1  A    between atoms: C_3  and  C_13
REMARK    2  A    between atoms: C_7  and  O_14
REMARK    3  A    between atoms: C_9  and  C_11
REMARK    4  A    between atoms: C_9  and  C_12
REMARK                            x       y       z     vdW  Elec       q    Type
REMARK                         _______ _______ _______ _____ _____    ______ ____
ROOT
ATOM      1  O   UNL     1      -4.050  -2.091   0.000  0.00  0.00    -0.342 OA
ATOM      2  C   UNL     1      -5.550  -2.091   0.000  0.00  0.00    +0.172 C 
ATOM      3  C   UNL     1      -6.300  -3.390   0.000  0.00  0.00    +0.012 C 
ATOM      4  C   UNL     1      -7.449  -4.354   0.000  0.00  0.00    +0.015 C 
ATOM      5  C   UNL     1      -7.449  -2.426   0.000  0.00  0.00    +0.015 C 
ATOM      6  C   UNL     1      -5.550  -4.689   0.000  0.00  0.00    +0.172 C 
ATOM      7  O   UNL     1      -4.050  -4.689   0.000  0.00  0.00    -0.342 OA
ATOM      8  C   UNL     1      -3.300  -3.390   0.000  0.00  0.00    +0.232 C 
ATOM      9  C   UNL     1      -2.418  -4.604   0.000  0.00  0.00    +0.149 C 
ATOM     12  C   UNL     1      -0.992  -4.140   0.000  0.00  0.00    +0.020 C 
ATOM     13  C   UNL     1      -0.992  -2.640   0.000  0.00  0.00    +0.039 C 
ATOM     14  C   UNL     1      -2.418  -2.177   0.000  0.00  0.00    +0.057 C 
ATOM     15  C   UNL     1      -2.882  -0.750   0.000  0.00  0.00    +0.014 C 
ENDROOT
BRANCH   9  10
ATOM     10  O   UNL     1      -2.882  -6.030   0.000  0.00  0.00    -0.506 OA
ATOM     11  H   UNL     1      -3.798  -6.225   0.000  0.00  0.00    +0.292 HD
ENDBRANCH   9  10
TORSDOF 1