REMARK  Name = 47619
REMARK  8 active torsions:
REMARK  status: ('A' for Active; 'I' for Inactive)
REMARK    1  A    between atoms: C_3  and  C_12
REMARK    2  A    between atoms: C_3  and  C_14
REMARK    3  A    between atoms: C_5  and  C_8
REMARK    4  A    between atoms: C_5  and  C_11
REMARK    5  A    between atoms: C_8  and  O_9
REMARK    6  A    between atoms: O_10  and  C_11
REMARK    7  A    between atoms: C_12  and  O_13
REMARK    8  A    between atoms: C_14  and  O_15
REMARK                            x       y       z     vdW  Elec       q    Type
REMARK                         _______ _______ _______ _____ _____    ______ ____
ROOT
ATOM      1  C   UNL     1       1.076   1.045   0.000  0.00  0.00    +0.018 C 
ATOM      2  C   UNL     1       2.121  -0.031   0.000  0.00  0.00    +0.018 C 
ATOM      9  C   UNL     1       1.045  -1.076   0.000  0.00  0.00    +0.018 C 
ATOM     10  C   UNL     1       0.000   0.000   0.000  0.00  0.00    -0.027 C 
ATOM     11  C   UNL     1      -1.076  -1.045   0.000  0.00  0.00    +0.018 C 
ATOM     12  C   UNL     1      -2.121   0.031   0.000  0.00  0.00    +0.018 C 
ATOM     19  C   UNL     1      -1.045   1.076   0.000  0.00  0.00    +0.018 C 
ENDROOT
BRANCH   2   3
ATOM      3  C   UNL     1       3.197   1.014   0.000  0.00  0.00    +0.165 C 
BRANCH   3   4
ATOM      4  O   UNL     1       4.640   0.605   0.000  0.00  0.00    -0.394 OA
ATOM      5  H   UNL     1       4.878  -0.336   0.000  0.00  0.00    +0.209 HD
ENDBRANCH   3   4
ENDBRANCH   2   3
BRANCH   2   6
ATOM      6  C   UNL     1       3.166  -1.107   0.000  0.00  0.00    +0.165 C 
BRANCH   6   7
ATOM      7  O   UNL     1       4.621  -0.740   0.000  0.00  0.00    -0.394 OA
ATOM      8  H   UNL     1       5.296  -1.436   0.000  0.00  0.00    +0.209 HD
ENDBRANCH   6   7
ENDBRANCH   2   6
BRANCH  12  13
ATOM     13  C   UNL     1      -3.197  -1.014   0.000  0.00  0.00    +0.165 C 
BRANCH  13  14
ATOM     14  O   UNL     1      -4.640  -0.605   0.000  0.00  0.00    -0.394 OA
ATOM     15  H   UNL     1      -4.878   0.336   0.000  0.00  0.00    +0.209 HD
ENDBRANCH  13  14
ENDBRANCH  12  13
BRANCH  12  16
ATOM     16  C   UNL     1      -3.166   1.107   0.000  0.00  0.00    +0.165 C 
BRANCH  16  17
ATOM     17  O   UNL     1      -4.621   0.740   0.000  0.00  0.00    -0.394 OA
ATOM     18  H   UNL     1      -5.296   1.436   0.000  0.00  0.00    +0.209 HD
ENDBRANCH  16  17
ENDBRANCH  12  16
TORSDOF 8