REMARK  Name = 515893
REMARK  0 active torsions:
REMARK  status: ('A' for Active; 'I' for Inactive)
REMARK                            x       y       z     vdW  Elec       q    Type
REMARK                         _______ _______ _______ _____ _____    ______ ____
ROOT
ATOM      1  C   UNL     1      -2.150   0.375   0.000  0.00  0.00    +0.003 C 
ATOM      2  C   UNL     1      -1.400  -0.924   0.000  0.00  0.00    +0.000 C 
ATOM      3  C   UNL     1      -2.150  -2.223   0.000  0.00  0.00    +0.003 C 
ATOM      4  C   UNL     1      -3.650  -2.223   0.000  0.00  0.00    +0.042 C 
ATOM      5  C   UNL     1      -4.399  -0.924   0.000  0.00  0.00    +0.084 C 
ATOM      6  N   UNL     1      -5.281  -2.138   0.000  0.00  0.00    -0.322 N 
ATOM      7  H   UNL     1      -4.818  -3.564   0.000  0.00  0.00    +0.148 HD
ATOM      8  C   UNL     1      -6.708  -1.674   0.000  0.00  0.00    +0.070 C 
ATOM      9  S   UNL     1      -7.921  -2.556   0.000  0.00  0.00    -0.038 S 
ATOM     10  C   UNL     1      -6.708  -0.174   0.000  0.00  0.00    +0.066 C 
ATOM     11  C   UNL     1      -8.078  -0.784   0.000  0.00  0.00    +0.029 C 
ATOM     12  C   UNL     1      -9.292   0.098   0.000  0.00  0.00    +0.002 C 
ATOM     13  C   UNL     1      -9.135   1.589   0.000  0.00  0.00    +0.000 C 
ATOM     14  C   UNL     1      -7.765   2.199   0.000  0.00  0.00    +0.002 C 
ATOM     15  C   UNL     1      -6.551   1.318   0.000  0.00  0.00    +0.029 C 
ATOM     16  N   UNL     1      -5.281   0.289   0.000  0.00  0.00    -0.285 NA
ATOM     17  H   UNL     1      -4.818   1.716   0.000  0.00  0.00    +0.125 HD
ATOM     18  C   UNL     1      -3.650   0.375   0.000  0.00  0.00    +0.042 C 
ENDROOT
TORSDOF 0