REMARK  Name = 48422
REMARK  3 active torsions:
REMARK  status: ('A' for Active; 'I' for Inactive)
REMARK    1  A    between atoms: C_1  and  C_11
REMARK    2  A    between atoms: C_3  and  O_13
REMARK    3  A    between atoms: C_11  and  N_12
REMARK                            x       y       z     vdW  Elec       q    Type
REMARK                         _______ _______ _______ _____ _____    ______ ____
ROOT
ATOM      1  C   UNL     1      -0.924  -4.399   0.000  0.00  0.00    +0.015 A 
ATOM      6  C   UNL     1      -2.223  -5.149   0.000  0.00  0.00    -0.010 A 
ATOM      7  C   UNL     1      -3.522  -4.399   0.000  0.00  0.00    +0.009 A 
ATOM      8  C   UNL     1      -4.821  -5.149   0.000  0.00  0.00    +0.001 A 
ATOM      9  C   UNL     1      -4.821  -6.649   0.000  0.00  0.00    +0.001 A 
ATOM     10  C   UNL     1      -3.522  -7.399   0.000  0.00  0.00    +0.008 A 
ATOM     11  C   UNL     1      -2.223  -6.649   0.000  0.00  0.00    -0.017 A 
ATOM     12  C   UNL     1      -0.924  -7.399   0.000  0.00  0.00    +0.012 A 
ATOM     13  C   UNL     1       0.375  -6.649   0.000  0.00  0.00    +0.046 A 
ATOM     14  C   UNL     1       0.375  -5.149   0.000  0.00  0.00    +0.122 A 
ENDROOT
BRANCH  14  15
ATOM     15  O   UNL     1       1.674  -4.399   0.000  0.00  0.00    -0.506 OA
ATOM     16  H   UNL     1       2.485  -4.868   0.000  0.00  0.00    +0.292 HD
ENDBRANCH  14  15
BRANCH   1   2
ATOM      2  C   UNL     1      -0.924  -2.900   0.000  0.00  0.00    +0.117 C 
BRANCH   2   3
ATOM      3  N   UNL     1      -2.223  -2.150   0.000  0.00  0.00    -0.326 NA
ATOM      4  H   UNL     1      -3.106  -2.660   0.000  0.00  0.00    +0.119 HD
ATOM      5  H   UNL     1      -2.223  -1.130   0.000  0.00  0.00    +0.119 HD
ENDBRANCH   2   3
ENDBRANCH   1   2
TORSDOF 3