REMARK  Name = 48617
REMARK  3 active torsions:
REMARK  status: ('A' for Active; 'I' for Inactive)
REMARK    1  A    between atoms: C_8  and  C_25
REMARK    2  A    between atoms: C_15  and  C_24
REMARK    3  A    between atoms: C_20  and  O_23
REMARK                            x       y       z     vdW  Elec       q    Type
REMARK                         _______ _______ _______ _____ _____    ______ ____
ROOT
ATOM      1  C   UNL     1      -3.557  -7.013   0.000  0.00  0.00    +0.003 C 
ATOM      2  C   UNL     1      -4.561  -8.127   0.000  0.00  0.00    -0.008 C 
ATOM      3  C   UNL     1      -5.024  -6.701   0.000  0.00  0.00    +0.016 C 
ATOM      4  C   UNL     1      -4.097  -9.554   0.000  0.00  0.00    -0.065 C 
ATOM      5  C   UNL     1      -5.101 -10.669   0.000  0.00  0.00    +0.062 C 
ATOM      6  C   UNL     1      -6.568 -10.357   0.000  0.00  0.00    +0.119 C 
ATOM      9  C   UNL     1      -7.031  -8.930   0.000  0.00  0.00    +0.032 C 
ATOM     10  C   UNL     1      -2.630  -9.866   0.000  0.00  0.00    -0.027 C 
ATOM     11  C   UNL     1      -1.626  -8.751   0.000  0.00  0.00    +0.031 C 
ATOM     12  C   UNL     1      -6.028  -7.815   0.000  0.00  0.00    +0.014 C 
ATOM     13  C   UNL     1      -2.090  -7.324   0.000  0.00  0.00    +0.001 C 
ATOM     14  C   UNL     1      -1.086  -6.210   0.000  0.00  0.00    +0.009 C 
ATOM     15  C   UNL     1       0.414  -6.210   0.000  0.00  0.00    +0.043 C 
ATOM     16  C   UNL     1       0.878  -4.783   0.000  0.00  0.00    -0.006 A 
ATOM     17  C   UNL     1      -0.336  -3.901   0.000  0.00  0.00    +0.072 A 
ATOM     18  N   UNL     1       0.128  -2.475   0.000  0.00  0.00    -0.178 NA
ATOM     19  N   UNL     1       1.628  -2.475   0.000  0.00  0.00    -0.284 N 
ATOM     20  H   UNL     1       2.206  -1.678   0.000  0.00  0.00    +0.188 HD
ATOM     21  C   UNL     1       2.091  -3.901   0.000  0.00  0.00    +0.108 A 
ATOM     22  C   UNL     1      -1.549  -4.783   0.000  0.00  0.00    +0.015 C 
ATOM     23  C   UNL     1      -1.861  -3.316   0.000  0.00  0.00    +0.018 C 
ATOM     24  C   UNL     1      -3.017  -4.471   0.000  0.00  0.00    +0.013 C 
ATOM     25  C   UNL     1      -4.020  -5.586   0.000  0.00  0.00    +0.005 C 
ENDROOT
BRANCH   6   7
ATOM      7  O   UNL     1      -7.572 -11.471   0.000  0.00  0.00    -0.391 OA
ATOM      8  H   UNL     1      -8.520 -11.270   0.000  0.00  0.00    +0.210 HD
ENDBRANCH   6   7
TORSDOF 1