REMARK  Name = 51093
REMARK  1 active torsions:
REMARK  status: ('A' for Active; 'I' for Inactive)
REMARK    1  A    between atoms: C_12  and  C_13
REMARK                            x       y       z     vdW  Elec       q    Type
REMARK                         _______ _______ _______ _____ _____    ______ ____
ROOT
ATOM      1  O   UNL     1      -1.025   6.274   0.000  0.00  0.00    -0.268 OA
ATOM      2  C   UNL     1       0.275   5.524   0.000  0.00  0.00    +0.255 A 
ATOM      3  C   UNL     1       1.574   6.274   0.000  0.00  0.00    +0.099 A 
ATOM      4  C   UNL     1       2.873   5.524   0.000  0.00  0.00    +0.094 A 
ATOM     11  N   UNL     1       2.873   4.024   0.000  0.00  0.00    -0.305 N 
ATOM     12  H   UNL     1       4.172   3.275   0.000  0.00  0.00    +0.170 HD
ATOM     13  C   UNL     1       1.574   3.275   0.000  0.00  0.00    +0.327 A 
ATOM     14  O   UNL     1       1.574   1.775   0.000  0.00  0.00    -0.247 OA
ATOM     15  N   UNL     1       0.275   4.024   0.000  0.00  0.00    -0.275 N 
ATOM     16  H   UNL     1      -1.025   3.275   0.000  0.00  0.00    +0.173 HD
ENDROOT
BRANCH   4   5
ATOM      5  C   UNL     1       4.172   6.274   0.000  0.00  0.00    +0.196 A 
ATOM      6  N   UNL     1       4.328   7.766   0.000  0.00  0.00    -0.238 N 
ATOM      7  H   UNL     1       3.214   8.770   0.000  0.00  0.00    +0.192 HD
ATOM      8  N   UNL     1       5.796   8.078   0.000  0.00  0.00    -0.046 NA
ATOM      9  N   UNL     1       6.546   6.779   0.000  0.00  0.00    -0.023 NA
ATOM     10  N   UNL     1       5.542   5.664   0.000  0.00  0.00    -0.107 NA
ENDBRANCH   4   5
TORSDOF 1