REMARK  Name = 50405
REMARK  0 active torsions:
REMARK  status: ('A' for Active; 'I' for Inactive)
REMARK                            x       y       z     vdW  Elec       q    Type
REMARK                         _______ _______ _______ _____ _____    ______ ____
ROOT
ATOM      1  S   UNL     1       3.526   0.750   0.000  0.00  0.00    -0.115 S 
ATOM      2  C   UNL     1       2.227   1.500   0.000  0.00  0.00    +0.238 C 
ATOM      3  S   UNL     1       2.227   3.000   0.000  0.00  0.00    -0.002 S 
ATOM      4  O   UNL     1       0.750   2.740   0.000  0.00  0.00    -0.172 OA
ATOM      5  O   UNL     1       1.714   4.410   0.000  0.00  0.00    -0.172 OA
ATOM      6  C   UNL     1       3.526   3.750   0.000  0.00  0.00    +0.332 C 
ATOM      7  S   UNL     1       4.825   3.000   0.000  0.00  0.00    -0.002 S 
ATOM      8  O   UNL     1       6.303   2.740   0.000  0.00  0.00    -0.172 OA
ATOM      9  O   UNL     1       5.338   4.410   0.000  0.00  0.00    -0.172 OA
ATOM     10  C   UNL     1       4.825   1.500   0.000  0.00  0.00    +0.238 C 
ENDROOT
TORSDOF 0