REMARK  Name = 50654
REMARK  5 active torsions:
REMARK  status: ('A' for Active; 'I' for Inactive)
REMARK    1  A    between atoms: C_3  and  O_25
REMARK    2  A    between atoms: C_5  and  C_26
REMARK    3  A    between atoms: C_21  and  N_28
REMARK    4  A    between atoms: C_22  and  O_29
REMARK    5  A    between atoms: O_29  and  C_30
REMARK                            x       y       z     vdW  Elec       q    Type
REMARK                         _______ _______ _______ _____ _____    ______ ____
ROOT
ATOM      1  H   UNL     1     -12.557  -8.134   0.000  0.00  0.00    +0.166 HD
ATOM      2  N   UNL     1     -12.093  -9.561   0.000  0.00  0.00    -0.354 N 
ATOM      3  C   UNL     1     -12.975 -10.775   0.000  0.00  0.00    +0.047 A 
ATOM      4  C   UNL     1     -14.467 -10.931   0.000  0.00  0.00    +0.026 A 
ATOM      5  C   UNL     1     -15.077 -12.302   0.000  0.00  0.00    +0.002 A 
ATOM      6  C   UNL     1     -14.195 -13.515   0.000  0.00  0.00    +0.001 A 
ATOM      7  C   UNL     1     -12.704 -13.358   0.000  0.00  0.00    +0.010 A 
ATOM      8  C   UNL     1     -12.093 -11.988   0.000  0.00  0.00    +0.007 A 
ATOM      9  C   UNL     1     -10.667 -11.525   0.000  0.00  0.00    +0.008 A 
ATOM     10  C   UNL     1      -9.368 -12.275   0.000  0.00  0.00    +0.011 A 
ATOM     11  C   UNL     1      -8.069 -11.525   0.000  0.00  0.00    +0.009 A 
ATOM     12  C   UNL     1      -8.069 -10.025   0.000  0.00  0.00    -0.015 A 
ATOM     13  C   UNL     1      -9.368  -9.274   0.000  0.00  0.00    +0.010 A 
ATOM     14  C   UNL     1      -9.368  -7.774   0.000  0.00  0.00    +0.056 A 
ATOM     15  C   UNL     1      -8.069  -7.024   0.000  0.00  0.00    +0.130 A 
ATOM     18  C   UNL     1      -6.770  -7.774   0.000  0.00  0.00    +0.079 A 
ATOM     31  C   UNL     1      -6.770  -9.274   0.000  0.00  0.00    +0.025 A 
ATOM     32  C   UNL     1     -10.667 -10.025   0.000  0.00  0.00    +0.055 A 
ENDROOT
BRANCH  18  19
ATOM     19  C   UNL     1      -5.471  -7.024   0.000  0.00  0.00    +0.252 C 
ATOM     20  N   UNL     1      -4.172  -7.774   0.000  0.00  0.00    -0.281 N 
ATOM     21  H   UNL     1      -4.172  -8.759   0.000  0.00  0.00    +0.155 HD
ATOM     30  O   UNL     1      -5.471  -5.524   0.000  0.00  0.00    -0.270 OA
BRANCH  20  22
ATOM     22  C   UNL     1      -2.873  -7.024   0.000  0.00  0.00    +0.034 A 
ATOM     23  C   UNL     1      -1.574  -7.774   0.000  0.00  0.00    +0.027 A 
ATOM     24  C   UNL     1      -0.275  -7.024   0.000  0.00  0.00    +0.047 A 
ATOM     25  C   UNL     1      -0.275  -5.524   0.000  0.00  0.00    +0.120 A 
ATOM     28  C   UNL     1      -1.574  -4.774   0.000  0.00  0.00    +0.047 A 
ATOM     29  C   UNL     1      -2.873  -5.524   0.000  0.00  0.00    +0.027 A 
BRANCH  25  26
ATOM     26  O   UNL     1       1.025  -4.774   0.000  0.00  0.00    -0.495 OA
ATOM     27  C   UNL     1       1.025  -3.275   0.000  0.00  0.00    +0.277 C 
ENDBRANCH  25  26
ENDBRANCH  20  22
ENDBRANCH  18  19
BRANCH  15  16
ATOM     16  O   UNL     1      -8.069  -5.524   0.000  0.00  0.00    -0.506 OA
ATOM     17  H   UNL     1      -7.257  -5.056   0.000  0.00  0.00    +0.292 HD
ENDBRANCH  15  16
TORSDOF 4