REMARK  Name = 513815
REMARK  1 active torsions:
REMARK  status: ('A' for Active; 'I' for Inactive)
REMARK    1  A    between atoms: C_4  and  C_5
REMARK                            x       y       z     vdW  Elec       q    Type
REMARK                         _______ _______ _______ _____ _____    ______ ____
ROOT
ATOM      6  C   UNL     1      -4.272  -2.049   0.000  0.00  0.00    +0.135 A 
ATOM      7  S   UNL     1      -3.390  -3.263   0.000  0.00  0.00    -0.031 S 
ATOM      8  C   UNL     1      -1.964  -2.799   0.000  0.00  0.00    +0.179 A 
ATOM      9  N   UNL     1      -0.750  -3.681   0.000  0.00  0.00    -0.336 N 
ATOM     10  H   UNL     1       0.149  -3.280   0.000  0.00  0.00    +0.144 HD
ATOM     11  H   UNL     1      -0.853  -4.660   0.000  0.00  0.00    +0.144 HD
ATOM     12  N   UNL     1      -1.964  -1.299   0.000  0.00  0.00    -0.126 NA
ATOM     13  N   UNL     1      -3.390  -0.836   0.000  0.00  0.00    -0.140 NA
ENDROOT
BRANCH   6   2
ATOM      1  C   UNL     1      -6.522  -0.750   0.000  0.00  0.00    +0.013 A 
ATOM      2  C   UNL     1      -5.772  -2.049   0.000  0.00  0.00    +0.027 A 
ATOM      3  C   UNL     1      -6.522  -3.348   0.000  0.00  0.00    +0.121 A 
ATOM      4  N   UNL     1      -8.022  -3.348   0.000  0.00  0.00    -0.263 NA
ATOM      5  C   UNL     1      -8.772  -2.049   0.000  0.00  0.00    +0.111 A 
ATOM     14  C   UNL     1      -8.022  -0.750   0.000  0.00  0.00    +0.020 A 
ENDBRANCH   6   2
TORSDOF 1