REMARK  Name = 50680
REMARK  5 active torsions:
REMARK  status: ('A' for Active; 'I' for Inactive)
REMARK    1  A    between atoms: C_2  and  O_19
REMARK    2  A    between atoms: C_4  and  N_21
REMARK    3  A    between atoms: C_9  and  C_18
REMARK    4  A    between atoms: C_12  and  O_20
REMARK    5  A    between atoms: O_19  and  C_22
REMARK                            x       y       z     vdW  Elec       q    Type
REMARK                         _______ _______ _______ _____ _____    ______ ____
ROOT
ATOM      6  N   UNL     1      -2.223  -6.649   0.000  0.00  0.00    -0.278 N 
ATOM      7  H   UNL     1      -2.223  -7.634   0.000  0.00  0.00    +0.155 HD
ATOM      8  C   UNL     1      -3.522  -5.899   0.000  0.00  0.00    +0.252 C 
ATOM      9  O   UNL     1      -3.522  -4.399   0.000  0.00  0.00    -0.270 OA
ENDROOT
BRANCH   8  10
ATOM     10  C   UNL     1      -4.821  -6.649   0.000  0.00  0.00    +0.079 A 
ATOM     11  C   UNL     1      -4.821  -8.149   0.000  0.00  0.00    +0.130 A 
ATOM     14  C   UNL     1      -6.120  -8.899   0.000  0.00  0.00    +0.054 A 
ATOM     15  C   UNL     1      -7.419  -8.149   0.000  0.00  0.00    -0.014 A 
ATOM     16  C   UNL     1      -8.718  -8.899   0.000  0.00  0.00    +0.008 A 
ATOM     17  C   UNL     1     -10.017  -8.149   0.000  0.00  0.00    +0.001 A 
ATOM     18  C   UNL     1     -10.017  -6.649   0.000  0.00  0.00    +0.001 A 
ATOM     19  C   UNL     1      -8.718  -5.899   0.000  0.00  0.00    +0.008 A 
ATOM     20  C   UNL     1      -7.419  -6.649   0.000  0.00  0.00    -0.017 A 
ATOM     21  C   UNL     1      -6.120  -5.899   0.000  0.00  0.00    +0.025 A 
BRANCH  11  12
ATOM     12  O   UNL     1      -3.522  -8.899   0.000  0.00  0.00    -0.506 OA
ATOM     13  H   UNL     1      -3.522  -9.836   0.000  0.00  0.00    +0.292 HD
ENDBRANCH  11  12
ENDBRANCH   8  10
BRANCH   6   3
ATOM      1  C   UNL     1       0.375  -3.650   0.000  0.00  0.00    +0.047 A 
ATOM      2  C   UNL     1      -0.924  -4.399   0.000  0.00  0.00    +0.141 A 
ATOM      3  C   UNL     1      -0.924  -5.899   0.000  0.00  0.00    +0.076 A 
ATOM      4  C   UNL     1       0.375  -6.649   0.000  0.00  0.00    +0.027 A 
ATOM      5  C   UNL     1       1.674  -5.899   0.000  0.00  0.00    +0.002 A 
ATOM     24  C   UNL     1       1.674  -4.399   0.000  0.00  0.00    +0.004 A 
BRANCH   2  22
ATOM     22  O   UNL     1      -2.223  -3.650   0.000  0.00  0.00    -0.493 OA
ATOM     23  C   UNL     1      -2.223  -2.150   0.000  0.00  0.00    +0.277 C 
ENDBRANCH   2  22
ENDBRANCH   6   3
TORSDOF 4