REMARK  Name = 51349
REMARK  5 active torsions:
REMARK  status: ('A' for Active; 'I' for Inactive)
REMARK    1  A    between atoms: C_7  and  C_9
REMARK    2  A    between atoms: C_15  and  O_18
REMARK    3  A    between atoms: C_17  and  O_20
REMARK    4  A    between atoms: O_18  and  C_19
REMARK    5  A    between atoms: O_20  and  C_21
REMARK                            x       y       z     vdW  Elec       q    Type
REMARK                         _______ _______ _______ _____ _____    ______ ____
ROOT
ATOM      1  O   UNL     1      -3.522 -10.400   0.000  0.00  0.00    -0.287 OA
ATOM      2  C   UNL     1      -3.522  -8.899   0.000  0.00  0.00    +0.197 A 
ATOM      3  C   UNL     1      -4.821  -8.149   0.000  0.00  0.00    +0.106 A 
ATOM      4  C   UNL     1      -6.120  -8.899   0.000  0.00  0.00    +0.138 A 
ATOM      7  C   UNL     1      -7.419  -8.149   0.000  0.00  0.00    +0.092 A 
ATOM      8  C   UNL     1      -7.419  -6.649   0.000  0.00  0.00    +0.127 A 
ATOM     11  C   UNL     1      -6.120  -5.899   0.000  0.00  0.00    +0.092 A 
ATOM     12  C   UNL     1      -4.821  -6.649   0.000  0.00  0.00    +0.146 A 
ATOM     13  O   UNL     1      -3.522  -5.899   0.000  0.00  0.00    -0.454 OA
ATOM     14  C   UNL     1      -2.223  -6.649   0.000  0.00  0.00    +0.141 A 
ATOM     21  C   UNL     1      -2.223  -8.149   0.000  0.00  0.00    +0.098 A 
ENDROOT
BRANCH  14  15
ATOM     15  C   UNL     1      -0.924  -5.899   0.000  0.00  0.00    +0.035 A 
ATOM     16  C   UNL     1      -0.924  -4.399   0.000  0.00  0.00    +0.122 A 
ATOM     17  N   UNL     1       0.375  -3.650   0.000  0.00  0.00    -0.263 NA
ATOM     18  C   UNL     1       1.674  -4.399   0.000  0.00  0.00    +0.111 A 
ATOM     19  C   UNL     1       1.674  -5.899   0.000  0.00  0.00    +0.020 A 
ATOM     20  C   UNL     1       0.375  -6.649   0.000  0.00  0.00    +0.014 A 
ENDBRANCH  14  15
BRANCH   4   5
ATOM      5  O   UNL     1      -6.120 -10.400   0.000  0.00  0.00    -0.494 OA
ATOM      6  C   UNL     1      -7.419 -11.150   0.000  0.00  0.00    +0.277 C 
ENDBRANCH   4   5
BRANCH   8   9
ATOM      9  O   UNL     1      -8.718  -5.899   0.000  0.00  0.00    -0.495 OA
ATOM     10  C   UNL     1     -10.017  -6.649   0.000  0.00  0.00    +0.277 C 
ENDBRANCH   8   9
TORSDOF 3