REMARK  Name = 50751
REMARK  2 active torsions:
REMARK  status: ('A' for Active; 'I' for Inactive)
REMARK    1  A    between atoms: C_3  and  N_14
REMARK    2  A    between atoms: C_5  and  O_13
REMARK                            x       y       z     vdW  Elec       q    Type
REMARK                         _______ _______ _______ _____ _____    ______ ____
ROOT
ATOM      1  N   UNL     1       6.870  -2.900   0.000  0.00  0.00    -0.240 NA
ATOM      2  C   UNL     1       8.169  -3.650   0.000  0.00  0.00    +0.113 A 
ATOM      3  C   UNL     1       8.169  -5.149   0.000  0.00  0.00    +0.020 A 
ATOM      4  C   UNL     1       6.870  -5.899   0.000  0.00  0.00    +0.005 A 
ATOM      5  C   UNL     1       5.571  -5.149   0.000  0.00  0.00    +0.044 A 
ATOM      6  C   UNL     1       5.571  -3.650   0.000  0.00  0.00    +0.123 A 
ATOM      7  N   UNL     1       4.272  -2.900   0.000  0.00  0.00    -0.297 N 
ATOM      8  H   UNL     1       3.420  -3.392   0.000  0.00  0.00    +0.154 HD
ENDROOT
BRANCH   7   9
ATOM      9  C   UNL     1       4.272  -1.400   0.000  0.00  0.00    +0.074 A 
ATOM     10  C   UNL     1       2.973  -0.649   0.000  0.00  0.00    +0.138 A 
ATOM     13  C   UNL     1       2.973   0.851   0.000  0.00  0.00    +0.047 A 
ATOM     14  C   UNL     1       4.272   1.601   0.000  0.00  0.00    +0.004 A 
ATOM     15  C   UNL     1       5.571   0.851   0.000  0.00  0.00    +0.002 A 
ATOM     16  C   UNL     1       5.571  -0.649   0.000  0.00  0.00    +0.027 A 
BRANCH  10  11
ATOM     11  O   UNL     1       1.674  -1.400   0.000  0.00  0.00    -0.505 OA
ATOM     12  H   UNL     1       0.863  -0.931   0.000  0.00  0.00    +0.292 HD
ENDBRANCH  10  11
ENDBRANCH   7   9
TORSDOF 2