REMARK  Name = 4936
REMARK  1 active torsions:
REMARK  status: ('A' for Active; 'I' for Inactive)
REMARK    1  A    between atoms: N_5  and  C_13
REMARK                            x       y       z     vdW  Elec       q    Type
REMARK                         _______ _______ _______ _____ _____    ______ ____
ROOT
ATOM      1  H   UNL     1      -5.109  -6.816   0.000  0.00  0.00    +0.172 HD
ATOM      2  N   UNL     1      -3.810  -6.066   0.000  0.00  0.00    -0.295 N 
ATOM      3  C   UNL     1      -3.810  -4.566   0.000  0.00  0.00    +0.195 A 
ATOM      4  N   UNL     1      -5.109  -3.816   0.000  0.00  0.00    -0.329 N 
ATOM      5  H   UNL     1      -5.961  -4.308   0.000  0.00  0.00    +0.145 HD
ATOM      6  H   UNL     1      -5.109  -2.831   0.000  0.00  0.00    +0.145 HD
ATOM      7  N   UNL     1      -2.511  -3.816   0.000  0.00  0.00    -0.197 NA
ATOM      8  C   UNL     1      -1.212  -4.566   0.000  0.00  0.00    +0.167 A 
ATOM      9  C   UNL     1      -1.212  -6.066   0.000  0.00  0.00    +0.103 A 
ATOM     10  C   UNL     1       0.215  -6.529   0.000  0.00  0.00    +0.150 A 
ATOM     11  N   UNL     1       1.097  -5.316   0.000  0.00  0.00    -0.177 NA
ATOM     12  N   UNL     1       0.215  -4.102   0.000  0.00  0.00    -0.249 N 
ATOM     13  C   UNL     1       0.679  -2.675   0.000  0.00  0.00    +0.174 C 
ATOM     14  C   UNL     1      -2.511  -6.816   0.000  0.00  0.00    +0.263 A 
ATOM     15  O   UNL     1      -2.511  -8.316   0.000  0.00  0.00    -0.267 OA
ENDROOT
TORSDOF 0