REMARK  Name = 50651
REMARK  3 active torsions:
REMARK  status: ('A' for Active; 'I' for Inactive)
REMARK    1  A    between atoms: C_6  and  O_22
REMARK    2  A    between atoms: C_7  and  C_23
REMARK    3  A    between atoms: C_18  and  N_25
REMARK                            x       y       z     vdW  Elec       q    Type
REMARK                         _______ _______ _______ _____ _____    ______ ____
ROOT
ATOM      1  H   UNL     1       3.738   5.489   0.000  0.00  0.00    +0.166 HD
ATOM      2  N   UNL     1       4.202   4.063   0.000  0.00  0.00    -0.354 N 
ATOM      3  C   UNL     1       3.320   2.849   0.000  0.00  0.00    +0.047 A 
ATOM      4  C   UNL     1       1.828   2.693   0.000  0.00  0.00    +0.026 A 
ATOM      5  C   UNL     1       1.218   1.322   0.000  0.00  0.00    +0.002 A 
ATOM      6  C   UNL     1       2.100   0.109   0.000  0.00  0.00    +0.001 A 
ATOM      7  C   UNL     1       3.592   0.266   0.000  0.00  0.00    +0.010 A 
ATOM      8  C   UNL     1       4.202   1.636   0.000  0.00  0.00    +0.007 A 
ATOM      9  C   UNL     1       5.628   2.099   0.000  0.00  0.00    +0.008 A 
ATOM     10  C   UNL     1       6.927   1.349   0.000  0.00  0.00    +0.027 A 
ATOM     11  C   UNL     1       8.226   2.099   0.000  0.00  0.00    +0.079 A 
ATOM     23  C   UNL     1       8.226   3.599   0.000  0.00  0.00    +0.131 A 
ATOM     26  C   UNL     1       6.927   4.349   0.000  0.00  0.00    +0.072 A 
ATOM     27  C   UNL     1       5.628   3.599   0.000  0.00  0.00    +0.051 A 
ENDROOT
BRANCH  11  12
ATOM     12  C   UNL     1       9.525   1.349   0.000  0.00  0.00    +0.252 C 
ATOM     13  N   UNL     1       9.525  -0.151   0.000  0.00  0.00    -0.281 N 
ATOM     14  H   UNL     1       8.673  -0.643   0.000  0.00  0.00    +0.155 HD
ATOM     22  O   UNL     1      10.825   2.099   0.000  0.00  0.00    -0.270 OA
BRANCH  13  15
ATOM     15  C   UNL     1      10.825  -0.901   0.000  0.00  0.00    +0.034 A 
ATOM     16  C   UNL     1      10.825  -2.401   0.000  0.00  0.00    +0.025 A 
ATOM     17  C   UNL     1      12.124  -3.151   0.000  0.00  0.00    +0.022 A 
ATOM     18  C   UNL     1      13.423  -2.401   0.000  0.00  0.00    +0.041 A 
ATOM     19  C   UNL     1      13.423  -0.901   0.000  0.00  0.00    +0.022 A 
ATOM     20 CL   UNL     1      14.722  -3.151   0.000  0.00  0.00    -0.084 Cl
ATOM     21  C   UNL     1      12.124  -0.151   0.000  0.00  0.00    +0.025 A 
ENDBRANCH  13  15
ENDBRANCH  11  12
BRANCH  23  24
ATOM     24  O   UNL     1       9.525   4.349   0.000  0.00  0.00    -0.506 OA
ATOM     25  H   UNL     1      10.337   3.881   0.000  0.00  0.00    +0.292 HD
ENDBRANCH  23  24
TORSDOF 3