REMARK  Name = 50633
REMARK  8 active torsions:
REMARK  status: ('A' for Active; 'I' for Inactive)
REMARK    1  A    between atoms: C_3  and  N_9
REMARK    2  A    between atoms: C_4  and  O_16
REMARK    3  A    between atoms: C_5  and  O_7
REMARK    4  A    between atoms: O_7  and  C_8
REMARK    5  A    between atoms: C_10  and  C_12
REMARK    6  A    between atoms: C_12  and  C_13
REMARK    7  A    between atoms: C_13  and  C_15
REMARK    8  A    between atoms: O_16  and  C_17
REMARK                            x       y       z     vdW  Elec       q    Type
REMARK                         _______ _______ _______ _____ _____    ______ ____
ROOT
ATOM      1  C   UNL     1      -7.245  -0.750   0.000  0.00  0.00    +0.030 A 
ATOM      2  C   UNL     1      -5.946  -1.500   0.000  0.00  0.00    +0.076 A 
ATOM     11  C   UNL     1      -5.946  -3.000   0.000  0.00  0.00    +0.145 A 
ATOM     14  C   UNL     1      -7.245  -3.750   0.000  0.00  0.00    +0.093 A 
ATOM     15  C   UNL     1      -8.544  -3.000   0.000  0.00  0.00    +0.124 A 
ATOM     18  C   UNL     1      -8.544  -1.500   0.000  0.00  0.00    +0.047 A 
ENDROOT
BRANCH   2   3
ATOM      3  N   UNL     1      -4.647  -0.750   0.000  0.00  0.00    -0.282 N 
ATOM      4  H   UNL     1      -4.647   0.234   0.000  0.00  0.00    +0.155 HD
ATOM      5  C   UNL     1      -3.348  -1.500   0.000  0.00  0.00    +0.224 C 
ATOM     10  O   UNL     1      -2.049  -0.750   0.000  0.00  0.00    -0.275 OA
BRANCH   5   6
ATOM      6  C   UNL     1      -3.348  -3.000   0.000  0.00  0.00    +0.170 C 
BRANCH   6   7
ATOM      7  C   UNL     1      -2.049  -3.750   0.000  0.00  0.00    +0.139 C 
ATOM      8  C   UNL     1      -2.049  -5.250   0.000  0.00  0.00    +0.086 C 
ATOM      9  O   UNL     1      -0.750  -3.000   0.000  0.00  0.00    -0.297 OA
ENDBRANCH   6   7
ENDBRANCH   5   6
ENDBRANCH   2   3
BRANCH  11  12
ATOM     12  O   UNL     1      -4.647  -3.750   0.000  0.00  0.00    -0.493 OA
ATOM     13  C   UNL     1      -4.647  -5.250   0.000  0.00  0.00    +0.277 C 
ENDBRANCH  11  12
BRANCH  15  16
ATOM     16  O   UNL     1      -9.843  -3.750   0.000  0.00  0.00    -0.495 OA
ATOM     17  C   UNL     1     -11.142  -3.000   0.000  0.00  0.00    +0.277 C 
ENDBRANCH  15  16
TORSDOF 5