REMARK  Name = 5157
REMARK  7 active torsions:
REMARK  status: ('A' for Active; 'I' for Inactive)
REMARK    1  A    between atoms: C_4  and  C_23
REMARK    2  A    between atoms: C_6  and  O_22
REMARK    3  A    between atoms: C_10  and  O_24
REMARK    4  A    between atoms: C_12  and  N_25
REMARK    5  A    between atoms: C_13  and  C_28
REMARK    6  A    between atoms: C_13  and  C_29
REMARK    7  A    between atoms: C_20  and  C_26
REMARK                            x       y       z     vdW  Elec       q    Type
REMARK                         _______ _______ _______ _____ _____    ______ ____
ROOT
ATOM      1  O   UNL     1     -12.412   4.800   0.000  0.00  0.00    -0.420 OA
ATOM      2  C   UNL     1     -11.113   4.050   0.000  0.00  0.00    +0.362 A 
ATOM      3  C   UNL     1     -11.113   2.550   0.000  0.00  0.00    +0.162 A 
ATOM     20  C   UNL     1     -12.412   1.800   0.000  0.00  0.00    +0.156 A 
ATOM     23  C   UNL     1     -13.711   2.550   0.000  0.00  0.00    +0.061 A 
ATOM     24  C   UNL     1     -15.010   1.800   0.000  0.00  0.00    +0.019 A 
ATOM     25  C   UNL     1     -16.309   2.550   0.000  0.00  0.00    +0.046 A 
ATOM     26  C   UNL     1     -16.309   4.050   0.000  0.00  0.00    +0.123 A 
ATOM     29  C   UNL     1     -15.010   4.800   0.000  0.00  0.00    +0.034 A 
ATOM     30  C   UNL     1     -15.010   6.300   0.000  0.00  0.00    +0.051 C 
ATOM     31  O   UNL     1      -9.814   4.800   0.000  0.00  0.00    -0.243 OA
ATOM     32  C   UNL     1     -13.711   4.050   0.000  0.00  0.00    +0.149 A 
ENDROOT
BRANCH   3   4
ATOM      4  N   UNL     1      -9.814   1.800   0.000  0.00  0.00    -0.273 N 
ATOM      5  H   UNL     1      -9.814   0.816   0.000  0.00  0.00    +0.155 HD
ATOM      6  C   UNL     1      -8.515   2.550   0.000  0.00  0.00    +0.249 C 
ATOM      7  O   UNL     1      -8.515   4.050   0.000  0.00  0.00    -0.270 OA
BRANCH   6   8
ATOM      8  C   UNL     1      -7.216   1.800   0.000  0.00  0.00    +0.038 A 
ATOM      9  C   UNL     1      -7.216   0.300   0.000  0.00  0.00    +0.020 A 
ATOM     10  C   UNL     1      -5.917  -0.450   0.000  0.00  0.00    -0.005 A 
ATOM     11  C   UNL     1      -4.618   0.300   0.000  0.00  0.00    +0.124 A 
ATOM     12  C   UNL     1      -4.618   1.800   0.000  0.00  0.00    +0.047 A 
ATOM     13  O   UNL     1      -3.319  -0.450   0.000  0.00  0.00    -0.486 OA
ATOM     14  C   UNL     1      -3.319  -1.950   0.000  0.00  0.00    +0.105 C 
ATOM     15  C   UNL     1      -2.806  -3.360   0.000  0.00  0.00    +0.055 C 
ATOM     16  C   UNL     1      -1.841  -1.690   0.000  0.00  0.00    +0.055 C 
ATOM     17  C   UNL     1      -4.618  -2.700   0.000  0.00  0.00    +0.052 C 
ATOM     18  C   UNL     1      -5.917  -1.950   0.000  0.00  0.00    +0.043 C 
ATOM     19  C   UNL     1      -5.917   2.550   0.000  0.00  0.00    +0.016 A 
ENDBRANCH   6   8
ENDBRANCH   3   4
BRANCH  20  21
ATOM     21  O   UNL     1     -12.412   0.300   0.000  0.00  0.00    -0.504 OA
ATOM     22  H   UNL     1     -13.223  -0.169   0.000  0.00  0.00    +0.292 HD
ENDBRANCH  20  21
BRANCH  26  27
ATOM     27  O   UNL     1     -17.608   4.800   0.000  0.00  0.00    -0.506 OA
ATOM     28  H   UNL     1     -17.608   5.737   0.000  0.00  0.00    +0.292 HD
ENDBRANCH  26  27
TORSDOF 4