REMARK  Name = 48443
REMARK  8 active torsions:
REMARK  status: ('A' for Active; 'I' for Inactive)
REMARK    1  A    between atoms: C_2  and  N_24
REMARK    2  A    between atoms: C_8  and  O_21
REMARK    3  A    between atoms: C_9  and  C_23
REMARK    4  A    between atoms: C_10  and  O_22
REMARK    5  A    between atoms: C_11  and  C_20
REMARK    6  A    between atoms: C_15  and  N_19
REMARK    7  A    between atoms: N_19  and  C_20
REMARK    8  A    between atoms: C_23  and  N_24
REMARK                            x       y       z     vdW  Elec       q    Type
REMARK                         _______ _______ _______ _____ _____    ______ ____
ROOT
ATOM     10  C   UNL     1      -8.169   0.851   0.000  0.00  0.00    +0.011 A 
ATOM     11  C   UNL     1      -9.468   0.101   0.000  0.00  0.00    +0.122 A 
ATOM     14  C   UNL     1     -10.767   0.851   0.000  0.00  0.00    +0.054 A 
ATOM     15  C   UNL     1     -10.767   2.350   0.000  0.00  0.00    +0.011 A 
ATOM     25  C   UNL     1      -9.468   3.100   0.000  0.00  0.00    +0.122 A 
ATOM     28  C   UNL     1      -8.169   2.350   0.000  0.00  0.00    +0.054 A 
ENDROOT
BRANCH  11  12
ATOM     12  O   UNL     1      -9.468  -1.400   0.000  0.00  0.00    -0.506 OA
ATOM     13  H   UNL     1     -10.280  -1.868   0.000  0.00  0.00    +0.292 HD
ENDBRANCH  11  12
BRANCH  25  26
ATOM     26  O   UNL     1      -9.468   4.601   0.000  0.00  0.00    -0.506 OA
ATOM     27  H   UNL     1      -8.657   5.069   0.000  0.00  0.00    +0.292 HD
ENDBRANCH  25  26
BRANCH  10   9
ATOM      9  C   UNL     1      -6.870   0.101   0.000  0.00  0.00    +0.120 C 
BRANCH   9   7
ATOM      7  N   UNL     1      -5.571   0.851   0.000  0.00  0.00    -0.309 NA
ATOM      8  H   UNL     1      -5.571   1.870   0.000  0.00  0.00    +0.123 HD
BRANCH   7   6
ATOM      1  C   UNL     1      -2.973   0.851   0.000  0.00  0.00    +0.019 C 
ATOM      2  C   UNL     1      -1.674   0.101   0.000  0.00  0.00    +0.002 C 
ATOM      3  C   UNL     1      -1.674  -1.400   0.000  0.00  0.00    +0.000 C 
ATOM      4  C   UNL     1      -2.973  -2.150   0.000  0.00  0.00    +0.002 C 
ATOM      5  C   UNL     1      -4.272  -1.400   0.000  0.00  0.00    +0.019 C 
ATOM      6  C   UNL     1      -4.272   0.101   0.000  0.00  0.00    +0.054 C 
ENDBRANCH   7   6
ENDBRANCH   9   7
ENDBRANCH  10   9
BRANCH  15  16
ATOM     16  C   UNL     1     -12.066   3.100   0.000  0.00  0.00    +0.120 C 
BRANCH  16  17
ATOM     17  N   UNL     1     -13.365   2.350   0.000  0.00  0.00    -0.309 NA
ATOM     18  H   UNL     1     -13.365   1.330   0.000  0.00  0.00    +0.123 HD
BRANCH  17  19
ATOM     19  C   UNL     1     -14.664   3.100   0.000  0.00  0.00    +0.054 C 
ATOM     20  C   UNL     1     -15.964   2.350   0.000  0.00  0.00    +0.019 C 
ATOM     21  C   UNL     1     -17.262   3.100   0.000  0.00  0.00    +0.002 C 
ATOM     22  C   UNL     1     -17.262   4.600   0.000  0.00  0.00    +0.000 C 
ATOM     23  C   UNL     1     -15.964   5.350   0.000  0.00  0.00    +0.002 C 
ATOM     24  C   UNL     1     -14.664   4.601   0.000  0.00  0.00    +0.019 C 
ENDBRANCH  17  19
ENDBRANCH  16  17
ENDBRANCH  15  16
TORSDOF 8