REMARK  Name = 46385
REMARK  8 active torsions:
REMARK  status: ('A' for Active; 'I' for Inactive)
REMARK    1  A    between atoms: N_5  and  C1*_17
REMARK    2  A    between atoms: C_11  and  C_23
REMARK    3  A    between atoms: C_12  and  S_22
REMARK    4  A    between atoms: C2*_18  and  O2*_27
REMARK    5  A    between atoms: C3*_19  and  O3*_26
REMARK    6  A    between atoms: C4*_20  and  C5*_25
REMARK    7  A    between atoms: S_22  and  C_23
REMARK    8  A    between atoms: O5*_24  and  C5*_25
REMARK                            x       y       z     vdW  Elec       q    Type
REMARK                         _______ _______ _______ _____ _____    ______ ____
ROOT
ATOM      1  N   UNL     1       6.221  -4.774   0.000  0.00  0.00    -0.206 NA
ATOM      2  C   UNL     1       6.221  -6.274   0.000  0.00  0.00    +0.216 A 
ATOM      3  N   UNL     1       4.922  -7.024   0.000  0.00  0.00    -0.327 N 
ATOM      4  H   UNL     1       4.922  -8.009   0.000  0.00  0.00    +0.145 HD
ATOM      5  H   UNL     1       4.069  -6.532   0.000  0.00  0.00    +0.145 HD
ATOM      6  N   UNL     1       7.520  -7.024   0.000  0.00  0.00    -0.195 NA
ATOM      7  C   UNL     1       8.819  -6.274   0.000  0.00  0.00    +0.169 A 
ATOM      8  C   UNL     1       8.819  -4.774   0.000  0.00  0.00    +0.140 A 
ATOM      9  N   UNL     1      10.245  -4.311   0.000  0.00  0.00    -0.231 NA
ATOM     10  C   UNL     1      11.127  -5.524   0.000  0.00  0.00    +0.203 A 
ATOM     11  N   UNL     1      10.245  -6.738   0.000  0.00  0.00    -0.285 N 
ATOM     24  C   UNL     1       7.520  -4.024   0.000  0.00  0.00    +0.130 A 
ENDROOT
BRANCH  11  12
ATOM     12  C1* UNL     1      10.709  -8.165   0.000  0.00  0.00    +0.253 C 
ATOM     13  C2* UNL     1      12.136  -8.628   0.000  0.00  0.00    +0.195 C 
ATOM     16  C3* UNL     1      12.136 -10.128   0.000  0.00  0.00    +0.178 C 
ATOM     19  C4* UNL     1      10.709 -10.592   0.000  0.00  0.00    +0.177 C 
ATOM     23  O4* UNL     1       9.827  -9.378   0.000  0.00  0.00    -0.346 OA
BRANCH  13  14
ATOM     14  O2* UNL     1      13.349  -7.747   0.000  0.00  0.00    -0.385 OA
ATOM     15  H2* UNL     1      14.235  -8.141   0.000  0.00  0.00    +0.210 HD
ENDBRANCH  13  14
BRANCH  16  17
ATOM     17  O3* UNL     1      13.349 -11.010   0.000  0.00  0.00    -0.386 OA
ATOM     18  H3* UNL     1      13.248 -11.974   0.000  0.00  0.00    +0.210 HD
ENDBRANCH  16  17
BRANCH  19  20
ATOM     20  C5* UNL     1      10.245 -12.018   0.000  0.00  0.00    +0.190 C 
BRANCH  20  21
ATOM     21  O5* UNL     1      11.249 -13.133   0.000  0.00  0.00    -0.392 OA
ATOM     22  H5* UNL     1      10.949 -14.056   0.000  0.00  0.00    +0.210 HD
ENDBRANCH  20  21
ENDBRANCH  19  20
ENDBRANCH  11  12
BRANCH  24  25
ATOM     25  S   UNL     1       7.520  -2.525   0.000  0.00  0.00    -0.097 S 
BRANCH  25  26
ATOM     26  C   UNL     1       6.221  -1.775   0.000  0.00  0.00    +0.131 C 
BRANCH  26  27
ATOM     27  C   UNL     1       6.221  -0.275   0.000  0.00  0.00    +0.051 A 
ATOM     28  C   UNL     1       4.922   0.475   0.000  0.00  0.00    +0.024 A 
ATOM     29  C   UNL     1       4.922   1.976   0.000  0.00  0.00    +0.003 A 
ATOM     30  C   UNL     1       6.221   2.725   0.000  0.00  0.00    +0.020 A 
ATOM     31  C   UNL     1       7.520   1.976   0.000  0.00  0.00    +0.111 A 
ATOM     32  N   UNL     1       7.520   0.475   0.000  0.00  0.00    -0.259 NA
ENDBRANCH  26  27
ENDBRANCH  25  26
ENDBRANCH  24  25
TORSDOF 8