REMARK  Name = 48964
REMARK  1 active torsions:
REMARK  status: ('A' for Active; 'I' for Inactive)
REMARK    1  A    between atoms: C_9  and  C_11
REMARK                            x       y       z     vdW  Elec       q    Type
REMARK                         _______ _______ _______ _____ _____    ______ ____
ROOT
ATOM      1  H   UNL     1      -0.275  -1.025   0.000  0.00  0.00    +0.146 HD
ATOM      2  N   UNL     1      -0.275  -2.525   0.000  0.00  0.00    -0.341 N 
ATOM      3  C   UNL     1       1.025  -3.275   0.000  0.00  0.00    +0.120 C 
ATOM      4  C   UNL     1       1.025  -4.774   0.000  0.00  0.00    +0.120 C 
ATOM      5  N   UNL     1      -0.275  -5.524   0.000  0.00  0.00    -0.341 N 
ATOM      6  H   UNL     1      -0.275  -7.024   0.000  0.00  0.00    +0.146 HD
ATOM      7  C   UNL     1      -1.573  -4.774   0.000  0.00  0.00    +0.049 A 
ATOM      8  C   UNL     1      -2.873  -5.524   0.000  0.00  0.00    +0.033 A 
ATOM      9  C   UNL     1      -4.172  -4.774   0.000  0.00  0.00    -0.016 A 
ATOM     16  C   UNL     1      -4.172  -3.275   0.000  0.00  0.00    +0.010 A 
ATOM     17  C   UNL     1      -2.873  -2.525   0.000  0.00  0.00    +0.025 A 
ATOM     18  C   UNL     1      -1.573  -3.275   0.000  0.00  0.00    +0.048 A 
ENDROOT
BRANCH   9  10
ATOM     10  C   UNL     1      -5.471  -5.524   0.000  0.00  0.00    -0.018 A 
ATOM     11  C   UNL     1      -6.770  -4.774   0.000  0.00  0.00    +0.008 A 
ATOM     12  C   UNL     1      -8.069  -5.524   0.000  0.00  0.00    +0.001 A 
ATOM     13  C   UNL     1      -8.069  -7.024   0.000  0.00  0.00    +0.000 A 
ATOM     14  C   UNL     1      -6.770  -7.774   0.000  0.00  0.00    +0.001 A 
ATOM     15  C   UNL     1      -5.471  -7.024   0.000  0.00  0.00    +0.008 A 
ENDBRANCH   9  10
TORSDOF 1