REMARK  Name = 51351
REMARK  8 active torsions:
REMARK  status: ('A' for Active; 'I' for Inactive)
REMARK    1  A    between atoms: C_1  and  O_15
REMARK    2  A    between atoms: C_3  and  C_18
REMARK    3  A    between atoms: C_4  and  O_17
REMARK    4  A    between atoms: C_5  and  O_13
REMARK    5  A    between atoms: C_8  and  C_21
REMARK    6  A    between atoms: O_13  and  C_14
REMARK    7  A    between atoms: O_15  and  C_16
REMARK    8  A    between atoms: C_18  and  C_20
REMARK                            x       y       z     vdW  Elec       q    Type
REMARK                         _______ _______ _______ _____ _____    ______ ____
ROOT
ATOM      1  C   UNL     1      -9.843  -3.000   0.000  0.00  0.00    +0.138 A 
ATOM      4  C   UNL     1     -11.142  -3.750   0.000  0.00  0.00    +0.092 A 
ATOM      5  C   UNL     1     -11.142  -5.250   0.000  0.00  0.00    +0.127 A 
ATOM      8  C   UNL     1      -9.843  -6.000   0.000  0.00  0.00    +0.092 A 
ATOM      9  C   UNL     1      -8.544  -5.250   0.000  0.00  0.00    +0.135 A 
ATOM     12  C   UNL     1      -8.544  -3.750   0.000  0.00  0.00    +0.105 A 
ENDROOT
BRANCH   1   2
ATOM      2  O   UNL     1      -9.843  -1.500   0.000  0.00  0.00    -0.494 OA
ATOM      3  C   UNL     1     -11.142  -0.750   0.000  0.00  0.00    +0.277 C 
ENDBRANCH   1   2
BRANCH   5   6
ATOM      6  O   UNL     1     -12.441  -6.000   0.000  0.00  0.00    -0.495 OA
ATOM      7  C   UNL     1     -13.740  -5.250   0.000  0.00  0.00    +0.277 C 
ENDBRANCH   5   6
BRANCH   9  10
ATOM     10  O   UNL     1      -7.245  -6.000   0.000  0.00  0.00    -0.506 OA
ATOM     11  H   UNL     1      -7.245  -6.937   0.000  0.00  0.00    +0.292 HD
ENDBRANCH   9  10
BRANCH  12  13
ATOM     13  C   UNL     1      -7.245  -3.000   0.000  0.00  0.00    +0.193 C 
ATOM     22  O   UNL     1      -7.245  -1.500   0.000  0.00  0.00    -0.287 OA
BRANCH  13  14
ATOM     14  C   UNL     1      -5.946  -3.750   0.000  0.00  0.00    +0.052 C 
ATOM     15  C   UNL     1      -4.647  -3.000   0.000  0.00  0.00    +0.012 C 
BRANCH  15  16
ATOM     16  C   UNL     1      -3.348  -3.750   0.000  0.00  0.00    -0.025 A 
ATOM     17  C   UNL     1      -3.348  -5.250   0.000  0.00  0.00    +0.008 A 
ATOM     18  C   UNL     1      -2.049  -6.000   0.000  0.00  0.00    +0.001 A 
ATOM     19  C   UNL     1      -0.750  -5.250   0.000  0.00  0.00    +0.000 A 
ATOM     20  C   UNL     1      -0.750  -3.750   0.000  0.00  0.00    +0.001 A 
ATOM     21  C   UNL     1      -2.049  -3.000   0.000  0.00  0.00    +0.008 A 
ENDBRANCH  15  16
ENDBRANCH  13  14
ENDBRANCH  12  13
TORSDOF 6