REMARK  Name = 4921
REMARK  0 active torsions:
REMARK  status: ('A' for Active; 'I' for Inactive)
REMARK                            x       y       z     vdW  Elec       q    Type
REMARK                         _______ _______ _______ _____ _____    ______ ____
ROOT
ATOM      1  O   UNL     1      -4.567  -4.245   0.000  0.00  0.00    -0.269 OA
ATOM      2  C   UNL     1      -4.103  -5.672   0.000  0.00  0.00    +0.261 C 
ATOM      3  C   UNL     1      -4.985  -6.885   0.000  0.00  0.00    +0.050 A 
ATOM      4  C   UNL     1      -6.477  -7.042   0.000  0.00  0.00    +0.014 A 
ATOM      5  C   UNL     1      -7.087  -8.412   0.000  0.00  0.00    +0.001 A 
ATOM      6  C   UNL     1      -6.205  -9.626   0.000  0.00  0.00    +0.001 A 
ATOM      7  C   UNL     1      -4.713  -9.469   0.000  0.00  0.00    +0.014 A 
ATOM      8  C   UNL     1      -4.103  -8.099   0.000  0.00  0.00    +0.050 A 
ATOM      9  C   UNL     1      -2.677  -7.635   0.000  0.00  0.00    +0.261 C 
ATOM     10  O   UNL     1      -1.463  -8.517   0.000  0.00  0.00    -0.269 OA
ATOM     11  N   UNL     1      -2.677  -6.135   0.000  0.00  0.00    -0.168 N 
ATOM     12  C   UNL     1      -1.463  -5.253   0.000  0.00  0.00    +0.250 A 
ATOM     13  N   UNL     1      -1.463  -3.753   0.000  0.00  0.00    -0.136 NA
ATOM     14  N   UNL     1      -0.037  -3.290   0.000  0.00  0.00    -0.264 N 
ATOM     15  H   UNL     1       0.427  -1.863   0.000  0.00  0.00    +0.190 HD
ATOM     16  C   UNL     1       0.845  -4.503   0.000  0.00  0.00    +0.217 A 
ATOM     17  N   UNL     1      -0.037  -5.717   0.000  0.00  0.00    -0.202 NA
ENDROOT
TORSDOF 0