REMARK  Name = 49847
REMARK  3 active torsions:
REMARK  status: ('A' for Active; 'I' for Inactive)
REMARK    1  A    between atoms: C_7  and  AS_12
REMARK    2  A    between atoms: C_8  and  AS_12
REMARK    3  A    between atoms: AS_12  and  O_13
REMARK                            x       y       z     vdW  Elec       q    Type
REMARK                         _______ _______ _______ _____ _____    ______ ____
ROOT
ATOM      6 AS   UNL     1      -4.558  -2.250   0.000  0.00  0.00    +0.000 As
ATOM     14  O   UNL     1      -4.558  -0.750   0.000  0.00  0.00    +0.000 OA
ENDROOT
BRANCH   6   5
ATOM      1  S   UNL     1      -6.940  -1.037   0.000  0.00  0.00    +0.000 S 
ATOM      2  C   UNL     1      -8.367  -1.500   0.000  0.00  0.00    +0.000 A 
ATOM      3  C   UNL     1      -8.367  -3.000   0.000  0.00  0.00    +0.000 A 
ATOM      4  C   UNL     1      -6.940  -3.463   0.000  0.00  0.00    +0.000 A 
ATOM      5  C   UNL     1      -6.058  -2.250   0.000  0.00  0.00    +0.000 A 
ENDBRANCH   6   5
BRANCH   6   9
ATOM      9  C   UNL     1      -3.058  -2.250   0.000  0.00  0.00    +0.000 A 
ATOM     10  C   UNL     1      -2.177  -3.463   0.000  0.00  0.00    +0.000 A 
ATOM     11  C   UNL     1      -0.750  -3.000   0.000  0.00  0.00    +0.000 A 
ATOM     12  C   UNL     1      -0.750  -1.500   0.000  0.00  0.00    +0.000 A 
ATOM     13  S   UNL     1      -2.177  -1.037   0.000  0.00  0.00    +0.000 S 
ENDBRANCH   6   9
BRANCH   6   7
ATOM      7  O   UNL     1      -4.558  -3.750   0.000  0.00  0.00    +0.000 OA
ATOM      8  H   UNL     1      -5.398  -4.235   0.000  0.00  0.00    +0.000 HD
ENDBRANCH   6   7
TORSDOF 3