REMARK  Name = 47881
REMARK  3 active torsions:
REMARK  status: ('A' for Active; 'I' for Inactive)
REMARK    1  A    between atoms: N_4  and  C_12
REMARK    2  A    between atoms: O_10  and  C_11
REMARK    3  A    between atoms: C_11  and  C_12
REMARK                            x       y       z     vdW  Elec       q    Type
REMARK                         _______ _______ _______ _____ _____    ______ ____
ROOT
ATOM      1  C   UNL     1       5.946   3.000   0.000  0.00  0.00    +0.302 C 
ATOM      2  N   UNL     1       5.946   1.500   0.000  0.00  0.00    -0.287 N 
ATOM      3  H   UNL     1       7.245   0.750   0.000  0.00  0.00    +0.151 HD
ATOM      4  C   UNL     1       4.647   0.750   0.000  0.00  0.00    +0.194 C 
ATOM      5  N   UNL     1       3.348   1.500   0.000  0.00  0.00    -0.269 NA
ATOM     10  C   UNL     1       3.348   3.000   0.000  0.00  0.00    +0.194 C 
ATOM     11  N   UNL     1       4.647   3.750   0.000  0.00  0.00    -0.287 N 
ATOM     12  H   UNL     1       4.647   5.250   0.000  0.00  0.00    +0.151 HD
ATOM     13  O   UNL     1       7.245   3.750   0.000  0.00  0.00    -0.253 OA
ENDROOT
BRANCH   5   6
ATOM      6  C   UNL     1       2.049   0.750   0.000  0.00  0.00    +0.115 C 
BRANCH   6   7
ATOM      7  C   UNL     1       0.750   1.500   0.000  0.00  0.00    +0.171 C 
BRANCH   7   8
ATOM      8  O   UNL     1       0.750   3.000   0.000  0.00  0.00    -0.394 OA
ATOM      9  H   UNL     1       1.590   3.485   0.000  0.00  0.00    +0.209 HD
ENDBRANCH   7   8
ENDBRANCH   6   7
ENDBRANCH   5   6
TORSDOF 3