REMARK  Name = 49652
REMARK  4 active torsions:
REMARK  status: ('A' for Active; 'I' for Inactive)
REMARK    1  A    between atoms: C_5  and  C_17
REMARK    2  A    between atoms: C_8  and  C_14
REMARK    3  A    between atoms: C_10  and  O_13
REMARK    4  A    between atoms: C_14  and  C_16
REMARK                            x       y       z     vdW  Elec       q    Type
REMARK                         _______ _______ _______ _____ _____    ______ ____
ROOT
ATOM      8  C   UNL     1       4.647   3.750   0.000  0.00  0.00    +0.190 C 
ATOM      9  O   UNL     1       4.647   5.250   0.000  0.00  0.00    -0.287 OA
ENDROOT
BRANCH   8  10
ATOM     10  C   UNL     1       3.348   3.000   0.000  0.00  0.00    +0.063 A 
ATOM     11  C   UNL     1       3.348   1.500   0.000  0.00  0.00    +0.128 A 
ATOM     14  C   UNL     1       2.049   0.750   0.000  0.00  0.00    +0.046 A 
ATOM     15  C   UNL     1       0.750   1.500   0.000  0.00  0.00    +0.004 A 
ATOM     16  C   UNL     1       0.750   3.000   0.000  0.00  0.00    +0.001 A 
ATOM     17  C   UNL     1       2.049   3.750   0.000  0.00  0.00    +0.015 A 
BRANCH  11  12
ATOM     12  O   UNL     1       4.647   0.750   0.000  0.00  0.00    -0.506 OA
ATOM     13  H   UNL     1       4.647  -0.187   0.000  0.00  0.00    +0.292 HD
ENDBRANCH  11  12
ENDBRANCH   8  10
BRANCH   8   7
ATOM      6  C   UNL     1       7.245   3.750   0.000  0.00  0.00    +0.013 C 
ATOM      7  C   UNL     1       5.946   3.000   0.000  0.00  0.00    +0.052 C 
BRANCH   6   5
ATOM      1  N   UNL     1      11.142   3.000   0.000  0.00  0.00    -0.263 NA
ATOM      2  C   UNL     1      11.142   1.500   0.000  0.00  0.00    +0.111 A 
ATOM      3  C   UNL     1       9.843   0.750   0.000  0.00  0.00    +0.020 A 
ATOM      4  C   UNL     1       8.544   1.500   0.000  0.00  0.00    +0.011 A 
ATOM      5  C   UNL     1       8.544   3.000   0.000  0.00  0.00    -0.007 A 
ATOM     18  C   UNL     1       9.843   3.750   0.000  0.00  0.00    +0.118 A 
ENDBRANCH   6   5
ENDBRANCH   8   7
TORSDOF 4