REMARK  Name = 49852
REMARK  7 active torsions:
REMARK  status: ('A' for Active; 'I' for Inactive)
REMARK    1  A    between atoms: C_3  and  AS_18
REMARK    2  A    between atoms: C_4  and  N_20
REMARK    3  A    between atoms: C_5  and  O_23
REMARK    4  A    between atoms: C_9  and  AS_18
REMARK    5  A    between atoms: C_10  and  N_14
REMARK    6  A    between atoms: C_12  and  O_17
REMARK    7  A    between atoms: AS_18  and  O_19
REMARK                            x       y       z     vdW  Elec       q    Type
REMARK                         _______ _______ _______ _____ _____    ______ ____
ROOT
ATOM      1  O   UNL     1      -4.272  -6.101   0.000  0.00  0.00    +0.000 OA
ATOM      2 AS   UNL     1      -3.522  -7.399   0.000  0.00  0.00    +0.000 As
ENDROOT
BRANCH   2   5
ATOM      5  C   UNL     1      -4.821  -8.149   0.000  0.00  0.00    +0.000 A 
ATOM      6  C   UNL     1      -4.821  -9.649   0.000  0.00  0.00    +0.000 A 
ATOM      7  C   UNL     1      -6.120 -10.400   0.000  0.00  0.00    +0.000 A 
ATOM      8  C   UNL     1      -7.419  -9.649   0.000  0.00  0.00    +0.000 A 
ATOM     11  C   UNL     1      -7.419  -8.149   0.000  0.00  0.00    +0.000 A 
ATOM     15  C   UNL     1      -6.120  -7.399   0.000  0.00  0.00    +0.000 A 
BRANCH  11  12
ATOM     12  N   UNL     1      -8.718  -7.399   0.000  0.00  0.00    +1.000 N 
ATOM     13  O   UNL     1      -8.718  -5.899   0.000  0.00  0.00    +0.000 OA
ATOM     14  O   UNL     1     -10.017  -8.149   0.000  0.00  0.00    -1.000 OA
ENDBRANCH  11  12
BRANCH   8   9
ATOM      9  O   UNL     1      -8.718 -10.400   0.000  0.00  0.00    +0.000 OA
ATOM     10  H   UNL     1      -9.530  -9.931   0.000  0.00  0.00    +0.000 HD
ENDBRANCH   8   9
ENDBRANCH   2   5
BRANCH   2  16
ATOM     16  C   UNL     1      -2.223  -6.649   0.000  0.00  0.00    +0.000 A 
ATOM     17  C   UNL     1      -0.924  -7.399   0.000  0.00  0.00    +0.000 A 
ATOM     18  C   UNL     1       0.375  -6.649   0.000  0.00  0.00    +0.000 A 
ATOM     19  C   UNL     1       0.375  -5.149   0.000  0.00  0.00    +0.000 A 
ATOM     22  C   UNL     1      -0.924  -4.399   0.000  0.00  0.00    +0.000 A 
ATOM     26  C   UNL     1      -2.223  -5.149   0.000  0.00  0.00    +0.000 A 
BRANCH  22  23
ATOM     23  N   UNL     1      -0.924  -2.900   0.000  0.00  0.00    +1.000 N 
ATOM     24  O   UNL     1      -2.223  -2.150   0.000  0.00  0.00    +0.000 OA
ATOM     25  O   UNL     1       0.375  -2.150   0.000  0.00  0.00    -1.000 OA
ENDBRANCH  22  23
BRANCH  19  20
ATOM     20  O   UNL     1       1.674  -4.399   0.000  0.00  0.00    +0.000 OA
ATOM     21  H   UNL     1       2.485  -4.868   0.000  0.00  0.00    +0.000 HD
ENDBRANCH  19  20
ENDBRANCH   2  16
BRANCH   2   3
ATOM      3  O   UNL     1      -2.772  -8.699   0.000  0.00  0.00    +0.000 OA
ATOM      4  H   UNL     1      -3.257  -9.539   0.000  0.00  0.00    +0.000 HD
ENDBRANCH   2   3
TORSDOF 7