REMARK  Name = 50690
REMARK  6 active torsions:
REMARK  status: ('A' for Active; 'I' for Inactive)
REMARK    1  A    between atoms: C_3  and  N_20
REMARK    2  A    between atoms: C_4  and  O_21
REMARK    3  A    between atoms: C_8  and  C_18
REMARK    4  A    between atoms: C_12  and  O_17
REMARK    5  A    between atoms: O_21  and  C_22
REMARK    6  A    between atoms: C_22  and  C_23
REMARK                            x       y       z     vdW  Elec       q    Type
REMARK                         _______ _______ _______ _____ _____    ______ ____
ROOT
ATOM      3  N   UNL     1      -5.471  -8.524   0.000  0.00  0.00    -0.281 N 
ATOM      4  H   UNL     1      -5.471  -9.509   0.000  0.00  0.00    +0.155 HD
ATOM      5  C   UNL     1      -6.770  -7.774   0.000  0.00  0.00    +0.252 C 
ATOM      6  O   UNL     1      -6.770  -6.274   0.000  0.00  0.00    -0.270 OA
ENDROOT
BRANCH   5   7
ATOM      7  C   UNL     1      -8.069  -8.524   0.000  0.00  0.00    +0.079 A 
ATOM      8  C   UNL     1      -8.069 -10.025   0.000  0.00  0.00    +0.130 A 
ATOM     11  C   UNL     1      -9.368 -10.775   0.000  0.00  0.00    +0.054 A 
ATOM     12  C   UNL     1     -10.667 -10.025   0.000  0.00  0.00    -0.014 A 
ATOM     13  C   UNL     1     -11.966 -10.775   0.000  0.00  0.00    +0.008 A 
ATOM     14  C   UNL     1     -13.265 -10.025   0.000  0.00  0.00    +0.001 A 
ATOM     15  C   UNL     1     -13.265  -8.524   0.000  0.00  0.00    +0.001 A 
ATOM     16  C   UNL     1     -11.966  -7.774   0.000  0.00  0.00    +0.008 A 
ATOM     17  C   UNL     1     -10.667  -8.524   0.000  0.00  0.00    -0.017 A 
ATOM     18  C   UNL     1      -9.368  -7.774   0.000  0.00  0.00    +0.025 A 
BRANCH   8   9
ATOM      9  O   UNL     1      -6.770 -10.775   0.000  0.00  0.00    -0.506 OA
ATOM     10  H   UNL     1      -6.770 -11.711   0.000  0.00  0.00    +0.292 HD
ENDBRANCH   8   9
ENDBRANCH   5   7
BRANCH   3   2
ATOM      1  C   UNL     1      -4.172  -6.274   0.000  0.00  0.00    +0.027 A 
ATOM      2  C   UNL     1      -4.172  -7.774   0.000  0.00  0.00    +0.034 A 
ATOM     19  C   UNL     1      -2.873  -8.524   0.000  0.00  0.00    +0.027 A 
ATOM     20  C   UNL     1      -1.574  -7.774   0.000  0.00  0.00    +0.047 A 
ATOM     21  C   UNL     1      -1.574  -6.274   0.000  0.00  0.00    +0.121 A 
ATOM     25  C   UNL     1      -2.873  -5.524   0.000  0.00  0.00    +0.047 A 
BRANCH  21  22
ATOM     22  O   UNL     1      -0.275  -5.524   0.000  0.00  0.00    -0.492 OA
BRANCH  22  23
ATOM     23  C   UNL     1      -0.275  -4.024   0.000  0.00  0.00    +0.225 C 
ATOM     24  C   UNL     1       1.025  -3.275   0.000  0.00  0.00    +0.048 C 
ENDBRANCH  22  23
ENDBRANCH  21  22
ENDBRANCH   3   2
TORSDOF 5