REMARK  Name = 47680
REMARK  4 active torsions:
REMARK  status: ('A' for Active; 'I' for Inactive)
REMARK    1  A    between atoms: C_9  and  C_19
REMARK    2  A    between atoms: C_13  and  S_18
REMARK    3  A    between atoms: C_15  and  C_17
REMARK    4  A    between atoms: S_18  and  C_19
REMARK                            x       y       z     vdW  Elec       q    Type
REMARK                         _______ _______ _______ _____ _____    ______ ____
ROOT
ATOM     10  S   UNL     1      -4.821  -6.649   0.000  0.00  0.00    -0.083 S 
ENDROOT
BRANCH  10   9
ATOM      1  N   UNL     1      -7.419  -6.649   0.000  0.00  0.00    -0.340 N 
ATOM      2  H   UNL     1      -7.419  -5.149   0.000  0.00  0.00    +0.167 HD
ATOM      3  C   UNL     1      -8.718  -7.399   0.000  0.00  0.00    +0.093 A 
ATOM      4  C   UNL     1      -8.718  -8.899   0.000  0.00  0.00    +0.032 A 
ATOM      5  C   UNL     1     -10.017  -9.649   0.000  0.00  0.00    +0.051 C 
ATOM      6  C   UNL     1      -7.419  -9.649   0.000  0.00  0.00    +0.277 A 
ATOM      7  N   UNL     1      -6.120  -8.899   0.000  0.00  0.00    -0.185 NA
ATOM      8  O   UNL     1      -7.419 -11.150   0.000  0.00  0.00    -0.265 OA
ATOM      9  C   UNL     1      -6.120  -7.399   0.000  0.00  0.00    +0.170 A 
ENDBRANCH  10   9
BRANCH  10  11
ATOM     11  C   UNL     1      -4.821  -5.149   0.000  0.00  0.00    +0.114 C 
BRANCH  11  12
ATOM     12  C   UNL     1      -3.522  -4.399   0.000  0.00  0.00    -0.019 A 
ATOM     13  C   UNL     1      -2.223  -5.149   0.000  0.00  0.00    +0.046 A 
ATOM     14  C   UNL     1      -0.924  -4.399   0.000  0.00  0.00    +0.040 A 
ATOM     15  C   UNL     1      -0.924  -2.900   0.000  0.00  0.00    +0.042 A 
ATOM     16  C   UNL     1      -2.223  -2.150   0.000  0.00  0.00    +0.020 A 
ATOM     17 CL   UNL     1       0.375  -2.150   0.000  0.00  0.00    -0.083 Cl
ATOM     18 CL   UNL     1      -2.223  -6.649   0.000  0.00  0.00    -0.083 Cl
ATOM     19  C   UNL     1      -3.522  -2.900   0.000  0.00  0.00    +0.007 A 
ENDBRANCH  11  12
ENDBRANCH  10  11
TORSDOF 3