REMARK  Name = 50688
REMARK  7 active torsions:
REMARK  status: ('A' for Active; 'I' for Inactive)
REMARK    1  A    between atoms: C_3  and  O_24
REMARK    2  A    between atoms: C_4  and  N_21
REMARK    3  A    between atoms: C_6  and  O_22
REMARK    4  A    between atoms: C_10  and  C_19
REMARK    5  A    between atoms: C_13  and  O_18
REMARK    6  A    between atoms: O_22  and  C_23
REMARK    7  A    between atoms: O_24  and  C_25
REMARK                            x       y       z     vdW  Elec       q    Type
REMARK                         _______ _______ _______ _____ _____    ______ ____
ROOT
ATOM      8  N   UNL     1      -8.169  -0.649   0.000  0.00  0.00    -0.278 N 
ATOM      9  H   UNL     1      -9.022  -1.142   0.000  0.00  0.00    +0.155 HD
ATOM     10  C   UNL     1      -8.169   0.851   0.000  0.00  0.00    +0.252 C 
ATOM     11  O   UNL     1      -6.870   1.601   0.000  0.00  0.00    -0.270 OA
ENDROOT
BRANCH  10  12
ATOM     12  C   UNL     1      -9.468   1.601   0.000  0.00  0.00    +0.079 A 
ATOM     13  C   UNL     1     -10.767   0.851   0.000  0.00  0.00    +0.130 A 
ATOM     16  C   UNL     1     -12.066   1.601   0.000  0.00  0.00    +0.054 A 
ATOM     17  C   UNL     1     -12.066   3.100   0.000  0.00  0.00    -0.014 A 
ATOM     18  C   UNL     1     -13.365   3.850   0.000  0.00  0.00    +0.008 A 
ATOM     19  C   UNL     1     -13.365   5.351   0.000  0.00  0.00    +0.001 A 
ATOM     20  C   UNL     1     -12.066   6.101   0.000  0.00  0.00    +0.001 A 
ATOM     21  C   UNL     1     -10.767   5.351   0.000  0.00  0.00    +0.008 A 
ATOM     22  C   UNL     1     -10.767   3.850   0.000  0.00  0.00    -0.017 A 
ATOM     23  C   UNL     1      -9.468   3.100   0.000  0.00  0.00    +0.025 A 
BRANCH  13  14
ATOM     14  O   UNL     1     -10.767  -0.649   0.000  0.00  0.00    -0.506 OA
ATOM     15  H   UNL     1     -11.579  -1.118   0.000  0.00  0.00    +0.292 HD
ENDBRANCH  13  14
ENDBRANCH  10  12
BRANCH   8   7
ATOM      1 CL   UNL     1      -2.973  -3.650   0.000  0.00  0.00    -0.080 Cl
ATOM      2  C   UNL     1      -4.272  -2.900   0.000  0.00  0.00    +0.086 A 
ATOM      3  C   UNL     1      -5.571  -3.650   0.000  0.00  0.00    +0.071 A 
ATOM      4  C   UNL     1      -6.870  -2.900   0.000  0.00  0.00    +0.143 A 
ATOM      7  C   UNL     1      -6.870  -1.400   0.000  0.00  0.00    +0.079 A 
ATOM     24  C   UNL     1      -5.571  -0.649   0.000  0.00  0.00    +0.074 A 
ATOM     25  C   UNL     1      -4.272  -1.400   0.000  0.00  0.00    +0.140 A 
BRANCH   4   5
ATOM      5  O   UNL     1      -8.169  -3.650   0.000  0.00  0.00    -0.493 OA
ATOM      6  C   UNL     1      -8.169  -5.149   0.000  0.00  0.00    +0.277 C 
ENDBRANCH   4   5
BRANCH  25  26
ATOM     26  O   UNL     1      -2.973  -0.649   0.000  0.00  0.00    -0.494 OA
ATOM     27  C   UNL     1      -1.674  -1.400   0.000  0.00  0.00    +0.277 C 
ENDBRANCH  25  26
ENDBRANCH   8   7
TORSDOF 5