REMARK  Name = 509563
REMARK  5 active torsions:
REMARK  status: ('A' for Active; 'I' for Inactive)
REMARK    1  A    between atoms: C_3  and  N_17
REMARK    2  A    between atoms: C_9  and  N_14
REMARK    3  A    between atoms: C_11  and  N_13
REMARK    4  A    between atoms: N_14  and  C_15
REMARK    5  A    between atoms: C_15  and  N_17
REMARK                            x       y       z     vdW  Elec       q    Type
REMARK                         _______ _______ _______ _____ _____    ______ ____
ROOT
ATOM      7  N   UNL     1       2.324   5.524   0.000  0.00  0.00    -0.297 N 
ATOM      8  H   UNL     1       3.176   5.032   0.000  0.00  0.00    +0.154 HD
ENDROOT
BRANCH   7   9
ATOM      9  C   UNL     1       1.025   4.774   0.000  0.00  0.00    +0.033 A 
ATOM     10  C   UNL     1       1.025   3.275   0.000  0.00  0.00    +0.025 A 
ATOM     11  C   UNL     1      -0.275   2.525   0.000  0.00  0.00    +0.024 A 
ATOM     12  C   UNL     1      -1.574   3.275   0.000  0.00  0.00    +0.025 A 
ATOM     16  C   UNL     1      -1.574   4.774   0.000  0.00  0.00    +0.024 A 
ATOM     17  C   UNL     1      -0.275   5.524   0.000  0.00  0.00    +0.025 A 
BRANCH  12  13
ATOM     13  N   UNL     1      -2.873   2.525   0.000  0.00  0.00    -0.358 N 
ATOM     14  H   UNL     1      -2.873   1.540   0.000  0.00  0.00    +0.142 HD
ATOM     15  H   UNL     1      -3.725   3.017   0.000  0.00  0.00    +0.142 HD
ENDBRANCH  12  13
ENDBRANCH   7   9
BRANCH   7   5
ATOM      5  C   UNL     1       2.324   7.024   0.000  0.00  0.00    +0.139 C 
ATOM      6  S   UNL     1       3.623   7.774   0.000  0.00  0.00    -0.018 S 
BRANCH   5   3
ATOM      3  N   UNL     1       1.025   7.774   0.000  0.00  0.00    -0.297 N 
ATOM      4  H   UNL     1       0.172   7.282   0.000  0.00  0.00    +0.154 HD
BRANCH   3   2
ATOM      1  C   UNL     1      -0.275  10.025   0.000  0.00  0.00    +0.023 A 
ATOM      2  C   UNL     1       1.025   9.274   0.000  0.00  0.00    +0.033 A 
ATOM     18  C   UNL     1       2.324  10.025   0.000  0.00  0.00    +0.023 A 
ATOM     19  C   UNL     1       2.324  11.525   0.000  0.00  0.00    +0.002 A 
ATOM     20  C   UNL     1       1.025  12.275   0.000  0.00  0.00    +0.000 A 
ATOM     21  C   UNL     1      -0.275  11.525   0.000  0.00  0.00    +0.002 A 
ENDBRANCH   3   2
ENDBRANCH   5   3
ENDBRANCH   7   5
TORSDOF 5