REMARK  Name = 661221
REMARK  2 active torsions:
REMARK  status: ('A' for Active; 'I' for Inactive)
REMARK    1  A    between atoms: C_6  and  C_21
REMARK    2  A    between atoms: N_7  and  C_20
REMARK                            x       y       z     vdW  Elec       q    Type
REMARK                         _______ _______ _______ _____ _____    ______ ____
ROOT
ATOM      1  C   UNL     1       1.471   3.287   0.000  0.00  0.00    +0.005 A 
ATOM      2  C   UNL     1       1.471   4.787   0.000  0.00  0.00    -0.050 A 
ATOM      3  C   UNL     1       0.172   5.537   0.000  0.00  0.00    +0.044 C 
ATOM      4  C   UNL     1       2.770   5.537   0.000  0.00  0.00    +0.014 A 
ATOM      5  C   UNL     1       4.069   4.787   0.000  0.00  0.00    +0.008 A 
ATOM      6  C   UNL     1       5.496   5.250   0.000  0.00  0.00    +0.008 A 
ATOM      7  C   UNL     1       6.106   6.621   0.000  0.00  0.00    +0.011 A 
ATOM      8  C   UNL     1       7.598   6.777   0.000  0.00  0.00    +0.013 A 
ATOM      9  C   UNL     1       8.479   5.564   0.000  0.00  0.00    +0.034 A 
ATOM     10  C   UNL     1       9.971   5.721   0.000  0.00  0.00    +0.187 C 
ATOM     11  O   UNL     1      10.581   7.091   0.000  0.00  0.00    -0.287 OA
ATOM     12  C   UNL     1      10.853   4.507   0.000  0.00  0.00    +0.055 C 
ATOM     13  C   UNL     1      10.243   3.137   0.000  0.00  0.00    +0.055 C 
ATOM     14  C   UNL     1       8.751   2.980   0.000  0.00  0.00    +0.189 C 
ATOM     15  O   UNL     1       8.141   1.610   0.000  0.00  0.00    -0.287 OA
ATOM     16  C   UNL     1       7.869   4.194   0.000  0.00  0.00    +0.056 A 
ATOM     17  C   UNL     1       6.378   4.037   0.000  0.00  0.00    +0.061 A 
ATOM     18  N   UNL     1       5.496   2.823   0.000  0.00  0.00    -0.342 N 
ATOM     19  C   UNL     1       5.959   1.397   0.000  0.00  0.00    +0.149 C 
ATOM     20  C   UNL     1       4.069   3.287   0.000  0.00  0.00    +0.050 A 
ATOM     21  C   UNL     1       2.770   2.537   0.000  0.00  0.00    +0.027 A 
ENDROOT
TORSDOF 0