REMARK  Name = 78999
REMARK  5 active torsions:
REMARK  status: ('A' for Active; 'I' for Inactive)
REMARK    1  A    between atoms: C_1  and  S_7
REMARK    2  A    between atoms: C_2  and  C_10
REMARK    3  A    between atoms: S_7  and  C_11
REMARK    4  A    between atoms: C_8  and  C_11
REMARK    5  A    between atoms: C_8  and  O_12
REMARK                            x       y       z     vdW  Elec       q    Type
REMARK                         _______ _______ _______ _____ _____    ______ ____
ROOT
ATOM      1  C   UNL     1       5.238   0.558   0.000  0.00  0.00    +0.190 A 
ATOM      2  N   UNL     1       3.746   0.715   0.000  0.00  0.00    -0.320 N 
ATOM      3  H   UNL     1       2.743  -0.400   0.000  0.00  0.00    +0.169 HD
ATOM      4  C   UNL     1       3.434   2.182   0.000  0.00  0.00    +0.128 A 
ATOM      5  C   UNL     1       2.064   2.792   0.000  0.00  0.00    +0.088 C 
ATOM      6  N   UNL     1       4.733   2.932   0.000  0.00  0.00    -0.134 NA
ATOM      7  N   UNL     1       5.848   1.928   0.000  0.00  0.00    -0.123 NA
ENDROOT
BRANCH   1   8
ATOM      8  S   UNL     1       5.988  -0.741   0.000  0.00  0.00    -0.075 S 
BRANCH   8   9
ATOM      9  C   UNL     1       7.488  -0.741   0.000  0.00  0.00    +0.197 C 
BRANCH   9  10
ATOM     10  C   UNL     1       8.238   0.558   0.000  0.00  0.00    +0.315 C 
ATOM     13  O   UNL     1       7.488   1.857   0.000  0.00  0.00    -0.250 OA
BRANCH  10  11
ATOM     11  O   UNL     1       9.738   0.558   0.000  0.00  0.00    -0.480 OA
ATOM     12  H   UNL     1      10.207  -0.254   0.000  0.00  0.00    +0.295 HD
ENDBRANCH  10  11
ENDBRANCH   9  10
ENDBRANCH   8   9
ENDBRANCH   1   8
TORSDOF 4