REMARK  Name = 60183
REMARK  8 active torsions:
REMARK  status: ('A' for Active; 'I' for Inactive)
REMARK    1  A    between atoms: N_3  and  S_18
REMARK    2  A    between atoms: C_5  and  S_18
REMARK    3  A    between atoms: C_7  and  C_21
REMARK    4  A    between atoms: C_11  and  C_13
REMARK    5  A    between atoms: C_12  and  N_17
REMARK    6  A    between atoms: C_13  and  C_14
REMARK    7  A    between atoms: C_13  and  C_15
REMARK    8  A    between atoms: C_14  and  C_16
REMARK                            x       y       z     vdW  Elec       q    Type
REMARK                         _______ _______ _______ _____ _____    ______ ____
ROOT
ATOM      1  O   UNL     1      -9.374  -1.225   0.000  0.00  0.00    -0.243 OA
ATOM      2  C   UNL     1      -7.948  -1.688   0.000  0.00  0.00    +0.366 A 
ATOM      3  C   UNL     1      -7.484  -3.115   0.000  0.00  0.00    +0.084 A 
ATOM      8  C   UNL     1      -5.984  -3.115   0.000  0.00  0.00    +0.165 A 
ATOM     12  N   UNL     1      -5.521  -1.688   0.000  0.00  0.00    -0.052 N 
ATOM     23  O   UNL     1      -6.734  -0.806   0.000  0.00  0.00    -0.312 OA
ENDROOT
BRANCH   8   9
ATOM      9  N   UNL     1      -5.103  -4.328   0.000  0.00  0.00    -0.340 N 
ATOM     10  H   UNL     1      -4.123  -4.225   0.000  0.00  0.00    +0.144 HD
ATOM     11  H   UNL     1      -5.503  -5.228   0.000  0.00  0.00    +0.144 HD
ENDBRANCH   8   9
BRANCH  12  13
ATOM     13  S   UNL     1      -4.094  -1.225   0.000  0.00  0.00    +0.112 S 
ATOM     14  O   UNL     1      -2.668  -0.761   0.000  0.00  0.00    -0.145 OA
ATOM     15  O   UNL     1      -3.631  -2.651   0.000  0.00  0.00    -0.145 OA
BRANCH  13  16
ATOM     16  C   UNL     1      -4.558   0.202   0.000  0.00  0.00    +0.114 A 
ATOM     17  C   UNL     1      -6.025   0.514   0.000  0.00  0.00    +0.029 A 
ATOM     18  C   UNL     1      -6.488   1.940   0.000  0.00  0.00    +0.005 A 
ATOM     19  C   UNL     1      -5.485   3.055   0.000  0.00  0.00    -0.050 A 
ATOM     20  C   UNL     1      -5.948   4.482   0.000  0.00  0.00    +0.044 C 
ATOM     21  C   UNL     1      -4.017   2.743   0.000  0.00  0.00    +0.005 A 
ATOM     22  C   UNL     1      -3.554   1.317   0.000  0.00  0.00    +0.029 A 
ENDBRANCH  13  16
ENDBRANCH  12  13
BRANCH   3   4
ATOM      4  C   UNL     1      -8.366  -4.328   0.000  0.00  0.00    +0.026 C 
ATOM      5  C   UNL     1      -7.756  -5.699   0.000  0.00  0.00    +0.013 C 
BRANCH   4   6
ATOM      6  C   UNL     1      -9.858  -4.171   0.000  0.00  0.00    +0.005 C 
ATOM      7  C   UNL     1     -10.468  -2.801   0.000  0.00  0.00    +0.004 C 
ENDBRANCH   4   6
ENDBRANCH   3   4
TORSDOF 5