REMARK  Name = 76015
REMARK  2 active torsions:
REMARK  status: ('A' for Active; 'I' for Inactive)
REMARK    1  A    between atoms: C_7  and  C_10
REMARK    2  A    between atoms: C_8  and  C_11
REMARK                            x       y       z     vdW  Elec       q    Type
REMARK                         _______ _______ _______ _____ _____    ______ ____
ROOT
ATOM      1 BR   UNL     1      -6.506  -0.750   0.000  0.00  0.00    -0.028 Br
ATOM      2  C   UNL     1      -5.207  -1.500   0.000  0.00  0.00    +0.121 A 
ATOM      3  C   UNL     1      -5.207  -3.000   0.000  0.00  0.00    +0.054 A 
ATOM      4  C   UNL     1      -3.908  -3.750   0.000  0.00  0.00    -0.018 A 
ATOM      5  C   UNL     1      -3.908  -5.250   0.000  0.00  0.00    +0.046 C 
ATOM      6  C   UNL     1      -2.608  -3.000   0.000  0.00  0.00    +0.043 A 
ATOM      7  C   UNL     1      -2.608  -1.500   0.000  0.00  0.00    +0.054 A 
ATOM      8  C   UNL     1      -1.310  -0.750   0.000  0.00  0.00    +0.067 C 
ATOM      9 BR   UNL     1      -1.310  -3.750   0.000  0.00  0.00    -0.048 Br
ATOM     10 BR   UNL     1      -6.506  -3.750   0.000  0.00  0.00    -0.047 Br
ATOM     11  N   UNL     1      -3.908  -0.750   0.000  0.00  0.00    -0.243 NA
ENDROOT
TORSDOF 0