REMARK  Name = 636734
REMARK  2 active torsions:
REMARK  status: ('A' for Active; 'I' for Inactive)
REMARK    1  A    between atoms: C_14  and  C_18
REMARK    2  A    between atoms: C_17  and  N_19
REMARK                            x       y       z     vdW  Elec       q    Type
REMARK                         _______ _______ _______ _____ _____    ______ ____
ROOT
ATOM      1  C   UNL     1       9.843   5.250   0.000  0.00  0.00    +0.189 C 
ATOM      2  O   UNL     1       9.843   6.750   0.000  0.00  0.00    -0.287 OA
ATOM      3  C   UNL     1      11.142   4.500   0.000  0.00  0.00    +0.025 A 
ATOM      4  C   UNL     1      12.441   5.250   0.000  0.00  0.00    +0.012 A 
ATOM      5  C   UNL     1      13.740   4.500   0.000  0.00  0.00    +0.001 A 
ATOM      6  C   UNL     1      13.740   3.000   0.000  0.00  0.00    +0.000 A 
ATOM      7  C   UNL     1      12.441   2.250   0.000  0.00  0.00    +0.004 A 
ATOM      8  C   UNL     1      11.142   3.000   0.000  0.00  0.00    -0.036 A 
ATOM      9  C   UNL     1       9.843   2.250   0.000  0.00  0.00    +0.040 C 
ATOM     10  C   UNL     1       8.544   3.000   0.000  0.00  0.00    +0.043 C 
ATOM     11  C   UNL     1       8.544   4.500   0.000  0.00  0.00    +0.001 C 
ATOM     12  C   UNL     1       7.245   5.250   0.000  0.00  0.00    +0.015 C 
ENDROOT
BRANCH  12  13
ATOM     13  C   UNL     1       5.946   4.500   0.000  0.00  0.00    -0.024 A 
ATOM     14  C   UNL     1       5.946   3.000   0.000  0.00  0.00    +0.014 A 
ATOM     15  C   UNL     1       4.647   2.250   0.000  0.00  0.00    +0.085 A 
ATOM     16  C   UNL     1       3.348   3.000   0.000  0.00  0.00    +0.273 A 
ATOM     20  C   UNL     1       3.348   4.500   0.000  0.00  0.00    +0.085 A 
ATOM     21  C   UNL     1       4.647   5.250   0.000  0.00  0.00    +0.014 A 
BRANCH  16  17
ATOM     17  N   UNL     1       2.049   2.250   0.000  0.00  0.00    +0.080 N 
ATOM     18  O   UNL     1       0.750   3.000   0.000  0.00  0.00    +0.041 OA
ATOM     19  O   UNL     1       2.049   0.750   0.000  0.00  0.00    -0.576 OA
ENDBRANCH  16  17
ENDBRANCH  12  13
TORSDOF 2