REMARK  Name = 44680
REMARK  3 active torsions:
REMARK  status: ('A' for Active; 'I' for Inactive)
REMARK    1  A    between atoms: N_1  and  C_6
REMARK    2  A    between atoms: C_3  and  C_11
REMARK    3  A    between atoms: O_10  and  C_11
REMARK                            x       y       z     vdW  Elec       q    Type
REMARK                         _______ _______ _______ _____ _____    ______ ____
ROOT
ATOM      1  N   UNL     1      -5.571   0.851   0.000  0.00  0.00    -0.292 NA
ATOM      8  C   UNL     1      -7.071   0.851   0.000  0.00  0.00    +0.096 C 
ATOM     12  C   UNL     1      -6.321   2.150   0.000  0.00  0.00    +0.106 C 
ENDROOT
BRANCH   1   2
ATOM      2  C   UNL     1      -4.272   0.101   0.000  0.00  0.00    +0.057 C 
ATOM      3  C   UNL     1      -4.272  -1.400   0.000  0.00  0.00    +0.019 C 
ATOM      4  C   UNL     1      -2.973  -2.150   0.000  0.00  0.00    +0.002 C 
ATOM      5  C   UNL     1      -1.674  -1.400   0.000  0.00  0.00    +0.000 C 
ATOM      6  C   UNL     1      -1.674   0.101   0.000  0.00  0.00    +0.002 C 
ATOM      7  C   UNL     1      -2.973   0.851   0.000  0.00  0.00    +0.019 C 
ENDBRANCH   1   2
BRANCH   8   9
ATOM      9  C   UNL     1      -8.370   0.101   0.000  0.00  0.00    +0.176 C 
BRANCH   9  10
ATOM     10  O   UNL     1      -9.669   0.851   0.000  0.00  0.00    -0.393 OA
ATOM     11  H   UNL     1      -9.669   1.820   0.000  0.00  0.00    +0.209 HD
ENDBRANCH   9  10
ENDBRANCH   8   9
TORSDOF 3