REMARK  Name = 44688
REMARK  6 active torsions:
REMARK  status: ('A' for Active; 'I' for Inactive)
REMARK    1  A    between atoms: N_2  and  C_8
REMARK    2  A    between atoms: C_4  and  O_12
REMARK    3  A    between atoms: C_5  and  C_16
REMARK    4  A    between atoms: C_13  and  C_14
REMARK    5  A    between atoms: C_13  and  O_15
REMARK    6  A    between atoms: O_15  and  C_16
REMARK                            x       y       z     vdW  Elec       q    Type
REMARK                         _______ _______ _______ _____ _____    ______ ____
ROOT
ATOM      1  N   UNL     1      -7.108  -0.048   0.000  0.00  0.00    -0.156 NA
ATOM      2  C   UNL     1      -8.111   1.067   0.000  0.00  0.00    +0.211 A 
ATOM      8  C   UNL     1      -7.362   2.366   0.000  0.00  0.00    +0.169 A 
ATOM     11  C   UNL     1      -5.894   2.054   0.000  0.00  0.00    +0.160 A 
ATOM     12  N   UNL     1      -5.737   0.562   0.000  0.00  0.00    -0.235 N 
ENDROOT
BRANCH  12  13
ATOM     13  C   UNL     1      -4.438  -0.188   0.000  0.00  0.00    +0.065 A 
ATOM     14  C   UNL     1      -4.438  -1.688   0.000  0.00  0.00    +0.028 A 
ATOM     15  C   UNL     1      -3.139  -2.438   0.000  0.00  0.00    +0.002 A 
ATOM     16  C   UNL     1      -1.840  -1.688   0.000  0.00  0.00    +0.000 A 
ATOM     17  C   UNL     1      -1.840  -0.188   0.000  0.00  0.00    +0.002 A 
ATOM     18  C   UNL     1      -3.139   0.562   0.000  0.00  0.00    +0.028 A 
ENDBRANCH  12  13
BRANCH   2   3
ATOM      3  C   UNL     1      -9.603   0.910   0.000  0.00  0.00    +0.363 C 
ATOM      4  O   UNL     1     -10.213  -0.460   0.000  0.00  0.00    -0.243 OA
BRANCH   3   5
ATOM      5  O   UNL     1     -10.485   2.124   0.000  0.00  0.00    -0.460 OA
BRANCH   5   6
ATOM      6  C   UNL     1     -11.977   1.967   0.000  0.00  0.00    +0.229 C 
ATOM      7  C   UNL     1     -12.858   3.180   0.000  0.00  0.00    +0.048 C 
ENDBRANCH   5   6
ENDBRANCH   3   5
ENDBRANCH   2   3
BRANCH   8   9
ATOM      9  O   UNL     1      -7.972   3.736   0.000  0.00  0.00    -0.503 OA
ATOM     10  H   UNL     1      -7.421   4.494   0.000  0.00  0.00    +0.292 HD
ENDBRANCH   8   9
TORSDOF 5