REMARK  Name = 57103
REMARK  3 active torsions:
REMARK  status: ('A' for Active; 'I' for Inactive)
REMARK    1  A    between atoms: C_2  and  O_17
REMARK    2  A    between atoms: C_3  and  N_11
REMARK    3  A    between atoms: C_7  and  N_14
REMARK                            x       y       z     vdW  Elec       q    Type
REMARK                         _______ _______ _______ _____ _____    ______ ____
ROOT
ATOM      1  N   UNL     1      -3.552   1.185   0.000  0.00  0.00    -0.251 NA
ATOM      2  C   UNL     1      -4.851   0.435   0.000  0.00  0.00    +0.126 A 
ATOM      3  C   UNL     1      -4.851  -1.065   0.000  0.00  0.00    +0.081 A 
ATOM      4  C   UNL     1      -3.552  -1.815   0.000  0.00  0.00    +0.018 A 
ATOM      5  C   UNL     1      -2.253  -1.065   0.000  0.00  0.00    +0.021 A 
ATOM      6  C   UNL     1      -6.150  -1.815   0.000  0.00  0.00    +0.289 A 
ATOM     10  C   UNL     1      -7.449  -1.065   0.000  0.00  0.00    +0.173 A 
ATOM     11  C   UNL     1      -7.449   0.435   0.000  0.00  0.00    +0.323 A 
ATOM     15  C   UNL     1      -6.150   1.185   0.000  0.00  0.00    +0.222 A 
ATOM     18  C   UNL     1      -2.253   0.435   0.000  0.00  0.00    +0.111 A 
ENDROOT
BRANCH   6   7
ATOM      7  N   UNL     1      -6.150  -3.315   0.000  0.00  0.00    +0.081 N 
ATOM      8  O   UNL     1      -4.851  -4.065   0.000  0.00  0.00    +0.041 OA
ATOM      9  O   UNL     1      -7.449  -4.065   0.000  0.00  0.00    -0.576 OA
ENDBRANCH   6   7
BRANCH  11  12
ATOM     12  N   UNL     1      -8.748   1.185   0.000  0.00  0.00    +0.084 N 
ATOM     13  O   UNL     1      -8.748   2.685   0.000  0.00  0.00    +0.042 OA
ATOM     14  O   UNL     1     -10.047   0.435   0.000  0.00  0.00    -0.576 OA
ENDBRANCH  11  12
BRANCH  15  16
ATOM     16  O   UNL     1      -6.150   2.685   0.000  0.00  0.00    -0.500 OA
ATOM     17  H   UNL     1      -5.339   3.153   0.000  0.00  0.00    +0.292 HD
ENDBRANCH  15  16
TORSDOF 3