REMARK  Name = 7420
REMARK  3 active torsions:
REMARK  status: ('A' for Active; 'I' for Inactive)
REMARK    1  A    between atoms: C_3  and  C_7
REMARK    2  A    between atoms: C_10  and  O_17
REMARK    3  A    between atoms: C_13  and  C_14
REMARK                            x       y       z     vdW  Elec       q    Type
REMARK                         _______ _______ _______ _____ _____    ______ ____
ROOT
ATOM      1 BR   UNL     1      -7.520   3.475   0.000  0.00  0.00    -0.050 Br
ATOM      2  C   UNL     1      -7.520   1.976   0.000  0.00  0.00    +0.019 A 
ATOM      3  C   UNL     1      -8.819   1.226   0.000  0.00  0.00    +0.032 A 
ATOM      4  C   UNL     1      -8.819  -0.275   0.000  0.00  0.00    +0.079 A 
ATOM     10  C   UNL     1      -7.520  -1.025   0.000  0.00  0.00    +0.132 A 
ATOM     13  C   UNL     1      -6.221  -0.275   0.000  0.00  0.00    -0.001 A 
ATOM     20  C   UNL     1      -6.221   1.226   0.000  0.00  0.00    +0.022 A 
ENDROOT
BRANCH  13  14
ATOM     14  C   UNL     1      -4.922  -1.025   0.000  0.00  0.00    +0.023 C 
ATOM     15  C   UNL     1      -4.922  -2.525   0.000  0.00  0.00    +0.008 C 
ATOM     16  C   UNL     1      -3.623  -3.275   0.000  0.00  0.00    +0.001 C 
ATOM     17  C   UNL     1      -2.324  -2.525   0.000  0.00  0.00    +0.000 C 
ATOM     18  C   UNL     1      -2.324  -1.025   0.000  0.00  0.00    +0.001 C 
ATOM     19  C   UNL     1      -3.623  -0.275   0.000  0.00  0.00    +0.008 C 
ENDBRANCH  13  14
BRANCH   4   5
ATOM      5  C   UNL     1     -10.118  -1.025   0.000  0.00  0.00    +0.245 C 
ATOM      6  N   UNL     1     -10.118  -2.525   0.000  0.00  0.00    -0.325 N 
ATOM      7  H   UNL     1      -9.265  -3.017   0.000  0.00  0.00    +0.145 HD
ATOM      8  H   UNL     1     -10.970  -3.017   0.000  0.00  0.00    +0.145 HD
ATOM      9  O   UNL     1     -11.417  -0.275   0.000  0.00  0.00    -0.270 OA
ENDBRANCH   4   5
BRANCH  10  11
ATOM     11  O   UNL     1      -7.520  -2.525   0.000  0.00  0.00    -0.506 OA
ATOM     12  H   UNL     1      -8.331  -2.993   0.000  0.00  0.00    +0.292 HD
ENDBRANCH  10  11
TORSDOF 3