REMARK  Name = 637578
REMARK  2 active torsions:
REMARK  status: ('A' for Active; 'I' for Inactive)
REMARK    1  A    between atoms: C_5  and  C_11
REMARK    2  A    between atoms: C_18  and  C_20
REMARK                            x       y       z     vdW  Elec       q    Type
REMARK                         _______ _______ _______ _____ _____    ______ ____
ROOT
ATOM      1  C   UNL     1       0.750  -3.750   0.000  0.00  0.00    +0.001 A 
ATOM      2  C   UNL     1       0.750  -5.250   0.000  0.00  0.00    +0.001 A 
ATOM      3  C   UNL     1       2.049  -6.000   0.000  0.00  0.00    +0.014 A 
ATOM      4  C   UNL     1       3.348  -5.250   0.000  0.00  0.00    +0.047 A 
ATOM      5  C   UNL     1       4.647  -6.000   0.000  0.00  0.00    +0.221 A 
ATOM      6  N   UNL     1       4.647  -7.500   0.000  0.00  0.00    -0.183 N 
ATOM      7  H   UNL     1       3.795  -7.992   0.000  0.00  0.00    +0.300 HD
ATOM      8  C   UNL     1       5.946  -8.250   0.000  0.00  0.00    +0.335 C 
ATOM     15  N   UNL     1       7.245  -7.500   0.000  0.00  0.00    -0.098 NA
ATOM     16  H   UNL     1       8.098  -7.992   0.000  0.00  0.00    +0.363 HD
ATOM     17  N   UNL     1       5.946  -5.250   0.000  0.00  0.00    -0.208 NA
ATOM     18  C   UNL     1       5.946  -3.750   0.000  0.00  0.00    +0.094 A 
ATOM     25  C   UNL     1       4.647  -3.000   0.000  0.00  0.00    +0.038 A 
ATOM     26  C   UNL     1       3.348  -3.750   0.000  0.00  0.00    -0.010 A 
ATOM     27  C   UNL     1       2.049  -3.000   0.000  0.00  0.00    +0.009 A 
ENDROOT
BRANCH   8   9
ATOM      9  C   UNL     1       5.946  -9.750   0.000  0.00  0.00    +0.154 A 
ATOM     10  N   UNL     1       7.245 -10.500   0.000  0.00  0.00    -0.248 NA
ATOM     11  C   UNL     1       7.245 -12.000   0.000  0.00  0.00    +0.111 A 
ATOM     12  C   UNL     1       5.946 -12.750   0.000  0.00  0.00    +0.020 A 
ATOM     13  C   UNL     1       4.647 -12.000   0.000  0.00  0.00    +0.004 A 
ATOM     14  C   UNL     1       4.647 -10.500   0.000  0.00  0.00    +0.036 A 
ENDBRANCH   8   9
BRANCH  18  19
ATOM     19  C   UNL     1       7.245  -3.000   0.000  0.00  0.00    +0.089 A 
ATOM     20  N   UNL     1       8.544  -3.750   0.000  0.00  0.00    -0.253 NA
ATOM     21  C   UNL     1       9.843  -3.000   0.000  0.00  0.00    +0.111 A 
ATOM     22  C   UNL     1       9.843  -1.500   0.000  0.00  0.00    +0.020 A 
ATOM     23  C   UNL     1       8.544  -0.750   0.000  0.00  0.00    +0.004 A 
ATOM     24  C   UNL     1       7.245  -1.500   0.000  0.00  0.00    +0.030 A 
ENDBRANCH  18  19
TORSDOF 2