REMARK  Name = 57624
REMARK  13 active torsions:
REMARK  status: ('A' for Active; 'I' for Inactive)
REMARK    1  A    between atoms: O_1  and  C_24
REMARK    2  A    between atoms: O_1  and  C_26
REMARK    3  A    between atoms: C_3  and  C_7
REMARK    4  A    between atoms: C_5  and  N_23
REMARK    5  A    between atoms: C_6  and  C_22
REMARK    6  A    between atoms: C_10  and  C_21
REMARK    7  A    between atoms: C_11  and  N_20
REMARK    8  A    between atoms: O_14  and  C_15
REMARK    9  A    between atoms: O_14  and  C_18
REMARK   10  A    between atoms: C_15  and  C_16
REMARK   11  A    between atoms: C_15  and  C_17
REMARK   12  A    between atoms: C_26  and  C_27
REMARK   13  A    between atoms: C_26  and  C_28
REMARK                            x       y       z     vdW  Elec       q    Type
REMARK                         _______ _______ _______ _____ _____    ______ ____
ROOT
ATOM      9  C   UNL     1      -3.522  -7.399   0.000  0.00  0.00    +0.037 A 
ATOM     10  C   UNL     1      -3.522  -8.899   0.000  0.00  0.00    +0.027 A 
ATOM     11  C   UNL     1      -4.821  -9.649   0.000  0.00  0.00    -0.041 A 
ATOM     12  C   UNL     1      -4.821 -11.150   0.000  0.00  0.00    +0.044 C 
ATOM     13  C   UNL     1      -6.120  -8.899   0.000  0.00  0.00    -0.015 A 
ATOM     29  C   UNL     1      -6.120  -7.399   0.000  0.00  0.00    +0.010 A 
ATOM     30  C   UNL     1      -4.821  -6.649   0.000  0.00  0.00    +0.024 A 
ENDROOT
BRANCH  13  14
ATOM     14  C   UNL     1      -7.419  -9.649   0.000  0.00  0.00    -0.015 A 
ATOM     15  C   UNL     1      -8.718  -8.899   0.000  0.00  0.00    +0.010 A 
ATOM     16  C   UNL     1     -10.017  -9.649   0.000  0.00  0.00    +0.024 A 
ATOM     17  C   UNL     1     -10.017 -11.150   0.000  0.00  0.00    +0.037 A 
ATOM     26  C   UNL     1      -8.718 -11.900   0.000  0.00  0.00    +0.027 A 
ATOM     27  C   UNL     1      -7.419 -11.150   0.000  0.00  0.00    -0.041 A 
ATOM     28  C   UNL     1      -6.120 -11.900   0.000  0.00  0.00    +0.044 C 
BRANCH  17  18
ATOM     18  N   UNL     1     -11.316 -11.900   0.000  0.00  0.00    -0.251 N 
ATOM     19  H   UNL     1     -11.316 -12.884   0.000  0.00  0.00    +0.158 HD
ATOM     20  C   UNL     1     -12.615 -11.150   0.000  0.00  0.00    +0.405 C 
ATOM     21  O   UNL     1     -12.615  -9.649   0.000  0.00  0.00    -0.226 OA
BRANCH  20  22
ATOM     22  O   UNL     1     -13.914 -11.900   0.000  0.00  0.00    -0.447 OA
BRANCH  22  23
ATOM     23  C   UNL     1     -15.213 -11.150   0.000  0.00  0.00    +0.172 C 
ATOM     24  C   UNL     1     -15.213  -9.650   0.000  0.00  0.00    +0.052 C 
ATOM     25  C   UNL     1     -16.512 -11.900   0.000  0.00  0.00    +0.052 C 
ENDBRANCH  22  23
ENDBRANCH  20  22
ENDBRANCH  17  18
ENDBRANCH  13  14
BRANCH   9   7
ATOM      5  C   UNL     1      -2.223  -5.149   0.000  0.00  0.00    +0.405 C 
ATOM      6  O   UNL     1      -3.522  -4.399   0.000  0.00  0.00    -0.226 OA
ATOM      7  N   UNL     1      -2.223  -6.649   0.000  0.00  0.00    -0.251 N 
ATOM      8  H   UNL     1      -1.370  -7.142   0.000  0.00  0.00    +0.158 HD
BRANCH   5   1
ATOM      1  O   UNL     1      -0.924  -4.399   0.000  0.00  0.00    -0.447 OA
BRANCH   1   2
ATOM      2  C   UNL     1      -0.924  -2.900   0.000  0.00  0.00    +0.172 C 
ATOM      3  C   UNL     1       0.375  -2.150   0.000  0.00  0.00    +0.052 C 
ATOM      4  C   UNL     1      -2.223  -2.150   0.000  0.00  0.00    +0.052 C 
ENDBRANCH   1   2
ENDBRANCH   5   1
ENDBRANCH   9   7
TORSDOF 7