REMARK  Name = 55957
REMARK  5 active torsions:
REMARK  status: ('A' for Active; 'I' for Inactive)
REMARK    1  A    between atoms: C_2  and  C_10
REMARK    2  A    between atoms: C_3  and  C_12
REMARK    3  A    between atoms: O_5  and  C_12
REMARK    4  A    between atoms: O_5  and  C_14
REMARK    5  A    between atoms: C_14  and  C_15
REMARK                            x       y       z     vdW  Elec       q    Type
REMARK                         _______ _______ _______ _____ _____    ______ ____
ROOT
ATOM      2  C   UNL     1       5.524   0.275   0.000  0.00  0.00    +0.244 C 
ATOM      3  O   UNL     1       6.274   1.574   0.000  0.00  0.00    -0.270 OA
ATOM      4  N   UNL     1       4.024   0.275   0.000  0.00  0.00    -0.237 N 
ATOM      5  H   UNL     1       3.532  -0.578   0.000  0.00  0.00    +0.159 HD
ATOM      6  C   UNL     1       3.275   1.574   0.000  0.00  0.00    +0.304 C 
ATOM      7  O   UNL     1       4.024   2.873   0.000  0.00  0.00    -0.253 OA
ATOM      8  N   UNL     1       1.775   1.573   0.000  0.00  0.00    -0.313 N 
ATOM      9  H   UNL     1       1.282   0.721   0.000  0.00  0.00    +0.146 HD
ATOM     10  H   UNL     1       1.282   2.426   0.000  0.00  0.00    +0.146 HD
ENDROOT
BRANCH   2   1
ATOM      1  C   UNL     1       6.274  -1.025   0.000  0.00  0.00    +0.074 C 
ATOM     11  C   UNL     1       7.774  -1.025   0.000  0.00  0.00    +0.096 C 
BRANCH  11  12
ATOM     12  C   UNL     1       8.524   0.275   0.000  0.00  0.00    +0.332 C 
ATOM     13  O   UNL     1       7.774   1.574   0.000  0.00  0.00    -0.246 OA
BRANCH  12  14
ATOM     14  O   UNL     1      10.025   0.275   0.000  0.00  0.00    -0.457 OA
BRANCH  14  15
ATOM     15  C   UNL     1      10.775  -1.025   0.000  0.00  0.00    +0.259 C 
BRANCH  15  16
ATOM     16  C   UNL     1      10.025  -2.324   0.000  0.00  0.00    +0.006 C 
ATOM     17  C   UNL     1      10.775  -3.623   0.000  0.00  0.00    +0.007 C 
ENDBRANCH  15  16
ENDBRANCH  14  15
ENDBRANCH  12  14
ENDBRANCH  11  12
ENDBRANCH   2   1
TORSDOF 5