REMARK  Name = 637343
REMARK  7 active torsions:
REMARK  status: ('A' for Active; 'I' for Inactive)
REMARK    1  A    between atoms: C_3  and  C_7
REMARK    2  A    between atoms: C_6  and  N_19
REMARK    3  A    between atoms: C_8  and  C_9
REMARK    4  A    between atoms: C_8  and  C_10
REMARK    5  A    between atoms: C_9  and  C_13
REMARK    6  A    between atoms: N_19  and  C_20
REMARK    7  A    between atoms: N_19  and  C_21
REMARK                            x       y       z     vdW  Elec       q    Type
REMARK                         _______ _______ _______ _____ _____    ______ ____
ROOT
ATOM      3  C   UNL     1      -7.245  -2.250   0.000  0.00  0.00    +0.030 C 
ATOM      4  C   UNL     1      -5.946  -3.000   0.000  0.00  0.00    +0.099 C 
ENDROOT
BRANCH   3   2
ATOM      1  C   UNL     1      -9.843  -2.250   0.000  0.00  0.00    +0.010 A 
ATOM      2  C   UNL     1      -8.544  -3.000   0.000  0.00  0.00    -0.024 A 
ATOM     15  C   UNL     1      -8.544  -4.500   0.000  0.00  0.00    +0.010 A 
ATOM     16  C   UNL     1      -9.843  -5.250   0.000  0.00  0.00    +0.023 A 
ATOM     17  C   UNL     1     -11.142  -4.500   0.000  0.00  0.00    +0.029 A 
ATOM     21  C   UNL     1     -11.142  -3.000   0.000  0.00  0.00    +0.023 A 
BRANCH  17  18
ATOM     18  N   UNL     1     -12.441  -5.250   0.000  0.00  0.00    -0.336 N 
ATOM     19  C   UNL     1     -12.441  -6.750   0.000  0.00  0.00    +0.129 C 
ATOM     20  C   UNL     1     -13.740  -4.500   0.000  0.00  0.00    +0.129 C 
ENDBRANCH  17  18
ENDBRANCH   3   2
BRANCH   4   5
ATOM      5  C   UNL     1      -5.946  -4.500   0.000  0.00  0.00    +0.103 C 
ATOM      6  N   UNL     1      -5.946  -6.000   0.000  0.00  0.00    -0.191 NA
ENDBRANCH   4   5
BRANCH   4   7
ATOM      7  C   UNL     1      -4.647  -2.250   0.000  0.00  0.00    +0.203 C 
ATOM     14  O   UNL     1      -4.647  -0.750   0.000  0.00  0.00    -0.286 OA
BRANCH   7   8
ATOM      8  C   UNL     1      -3.348  -3.000   0.000  0.00  0.00    +0.023 A 
ATOM      9  C   UNL     1      -3.348  -4.500   0.000  0.00  0.00    +0.012 A 
ATOM     10  C   UNL     1      -2.049  -5.250   0.000  0.00  0.00    +0.001 A 
ATOM     11  C   UNL     1      -0.750  -4.500   0.000  0.00  0.00    +0.000 A 
ATOM     12  C   UNL     1      -0.750  -3.000   0.000  0.00  0.00    +0.001 A 
ATOM     13  C   UNL     1      -2.049  -2.250   0.000  0.00  0.00    +0.012 A 
ENDBRANCH   7   8
ENDBRANCH   4   7
TORSDOF 5