REMARK  Name = 56287
REMARK  4 active torsions:
REMARK  status: ('A' for Active; 'I' for Inactive)
REMARK    1  A    between atoms: C_13  and  N_21
REMARK    2  A    between atoms: C_16  and  N_21
REMARK    3  A    between atoms: C_18  and  S_19
REMARK    4  A    between atoms: S_19  and  C_20
REMARK                            x       y       z     vdW  Elec       q    Type
REMARK                         _______ _______ _______ _____ _____    ______ ____
ROOT
ATOM      5  N   UNL     1       1.574  -7.774   0.000  0.00  0.00    -0.293 N 
ATOM      6  H   UNL     1       2.426  -8.267   0.000  0.00  0.00    +0.154 HD
ENDROOT
BRANCH   5   7
ATOM      7  C   UNL     1       1.574  -6.274   0.000  0.00  0.00    +0.114 A 
ATOM      8  C   UNL     1       2.873  -5.524   0.000  0.00  0.00    +0.275 A 
ATOM      9  N   UNL     1       2.873  -4.024   0.000  0.00  0.00    -0.274 N 
ATOM     10  H   UNL     1       4.172  -3.275   0.000  0.00  0.00    +0.173 HD
ATOM     11  C   UNL     1       1.574  -3.275   0.000  0.00  0.00    +0.327 A 
ATOM     12  O   UNL     1       1.574  -1.775   0.000  0.00  0.00    -0.247 OA
ATOM     13  N   UNL     1       0.275  -4.024   0.000  0.00  0.00    -0.313 N 
ATOM     14  H   UNL     1      -1.025  -3.275   0.000  0.00  0.00    +0.170 HD
ATOM     15  O   UNL     1       4.172  -6.274   0.000  0.00  0.00    -0.266 OA
ATOM     16  C   UNL     1       0.275  -5.524   0.000  0.00  0.00    +0.116 A 
ENDBRANCH   5   7
BRANCH   5   4
ATOM      1 CL   UNL     1      -3.623  -7.774   0.000  0.00  0.00    -0.061 Cl
ATOM      2  C   UNL     1      -2.324  -8.524   0.000  0.00  0.00    +0.149 A 
ATOM      3  C   UNL     1      -1.025  -7.774   0.000  0.00  0.00    +0.095 A 
ATOM      4  C   UNL     1       0.275  -8.524   0.000  0.00  0.00    +0.143 A 
ATOM     17  N   UNL     1       0.275 -10.025   0.000  0.00  0.00    -0.206 NA
ATOM     18  C   UNL     1      -1.025 -10.775   0.000  0.00  0.00    +0.191 A 
ATOM     21 BR   UNL     1      -1.025  -6.274   0.000  0.00  0.00    -0.044 Br
ATOM     22  N   UNL     1      -2.324 -10.025   0.000  0.00  0.00    -0.209 NA
BRANCH  18  19
ATOM     19  S   UNL     1      -1.025 -12.275   0.000  0.00  0.00    -0.089 S 
ATOM     20  C   UNL     1      -2.324 -13.025   0.000  0.00  0.00    +0.093 C 
ENDBRANCH  18  19
ENDBRANCH   5   4
TORSDOF 3