REMARK  Name = 67546
REMARK  8 active torsions:
REMARK  status: ('A' for Active; 'I' for Inactive)
REMARK    1  A    between atoms: N_1  and  C_4
REMARK    2  A    between atoms: C_3  and  C_11
REMARK    3  A    between atoms: C_5  and  O_12
REMARK    4  A    between atoms: C_6  and  O_13
REMARK    5  A    between atoms: C_7  and  C_8
REMARK    6  A    between atoms: C_7  and  C_9
REMARK    7  A    between atoms: O_10  and  C_11
REMARK    8  A    between atoms: O_13  and  C_14
REMARK                            x       y       z     vdW  Elec       q    Type
REMARK                         _______ _______ _______ _____ _____    ______ ____
ROOT
ATOM      5  C   UNL     1      -0.462  -0.154   0.000  0.00  0.00    +0.169 C 
ATOM      6  C   UNL     1       0.964  -0.620   0.000  0.00  0.00    +0.197 C 
ATOM      9  C   UNL     1       1.847   0.592   0.000  0.00  0.00    +0.281 C 
ATOM     12  O   UNL     1       0.968   1.807   0.000  0.00  0.00    -0.341 OA
ATOM     13  C   UNL     1      -0.459   1.346   0.000  0.00  0.00    +0.174 C 
ENDROOT
BRANCH   5   1
ATOM      1  N   UNL     1      -1.677  -1.034   0.000  0.00  0.00    -0.284 NA
ATOM      2  C   UNL     1      -1.523  -2.526   0.000  0.00  0.00    +0.008 C 
ATOM      3  C   UNL     1      -2.738  -3.405   0.000  0.00  0.00    +0.060 C 
ATOM      4  C   UNL     1      -0.154  -3.138   0.000  0.00  0.00    +0.060 C 
ENDBRANCH   5   1
BRANCH   6   7
ATOM      7  O   UNL     1       0.503   0.807   0.000  0.00  0.00    -0.385 OA
ATOM      8  H   UNL     1       1.153   1.527   0.000  0.00  0.00    +0.210 HD
ENDBRANCH   6   7
BRANCH   9  10
ATOM     10  O   UNL     1       3.347   0.589   0.000  0.00  0.00    -0.352 OA
ATOM     11  C   UNL     1       4.100   1.886   0.000  0.00  0.00    +0.197 C 
ENDBRANCH   9  10
BRANCH  13  14
ATOM     14  C   UNL     1      -1.671   2.230   0.000  0.00  0.00    +0.189 C 
BRANCH  14  15
ATOM     15  O   UNL     1      -3.043   1.622   0.000  0.00  0.00    -0.392 OA
ATOM     16  H   UNL     1      -3.827   2.194   0.000  0.00  0.00    +0.210 HD
ENDBRANCH  14  15
ENDBRANCH  13  14
TORSDOF 5