REMARK  Name = 645033
REMARK  3 active torsions:
REMARK  status: ('A' for Active; 'I' for Inactive)
REMARK    1  A    between atoms: C_1  and  C_6
REMARK    2  A    between atoms: N_2  and  C_18
REMARK    3  A    between atoms: C_5  and  C_13
REMARK                            x       y       z     vdW  Elec       q    Type
REMARK                         _______ _______ _______ _____ _____    ______ ____
ROOT
ATOM      1  C   UNL     1       6.349   5.279   0.000  0.00  0.00    +0.110 A 
ATOM      9  C   UNL     1       7.776   4.815   0.000  0.00  0.00    +0.203 A 
ATOM     17  N   UNL     1       7.776   3.315   0.000  0.00  0.00    -0.121 NA
ATOM     18  N   UNL     1       6.349   2.852   0.000  0.00  0.00    -0.059 NA
ATOM     19  N   UNL     1       5.468   4.065   0.000  0.00  0.00    -0.211 N 
ENDROOT
BRANCH   1   2
ATOM      2  C   UNL     1       5.886   6.705   0.000  0.00  0.00    +0.003 A 
ATOM      3  C   UNL     1       6.890   7.820   0.000  0.00  0.00    +0.011 A 
ATOM      4  C   UNL     1       6.426   9.247   0.000  0.00  0.00    +0.020 A 
ATOM      5  C   UNL     1       4.959   9.559   0.000  0.00  0.00    +0.041 A 
ATOM      6 CL   UNL     1       4.495  10.985   0.000  0.00  0.00    -0.084 Cl
ATOM      7  C   UNL     1       3.955   8.444   0.000  0.00  0.00    +0.020 A 
ATOM      8  C   UNL     1       4.419   7.017   0.000  0.00  0.00    +0.011 A 
ENDBRANCH   1   2
BRANCH   9  10
ATOM     10  C   UNL     1       8.989   5.697   0.000  0.00  0.00    +0.335 C 
ATOM     11  N   UNL     1       8.833   7.189   0.000  0.00  0.00    -0.081 NA
ATOM     12  C   UNL     1      10.046   8.070   0.000  0.00  0.00    +0.294 C 
ATOM     13  C   UNL     1      11.417   7.460   0.000  0.00  0.00    +0.093 C 
ATOM     14  C   UNL     1      11.573   5.968   0.000  0.00  0.00    +0.227 C 
ATOM     15  N   UNL     1      10.360   5.087   0.000  0.00  0.00    -0.232 N 
ATOM     16  H   UNL     1      10.463   4.108   0.000  0.00  0.00    +0.291 HD
ENDBRANCH   9  10
BRANCH  19  20
ATOM     20  C   UNL     1       3.968   4.065   0.000  0.00  0.00    +0.068 A 
ATOM     21  C   UNL     1       3.218   2.766   0.000  0.00  0.00    +0.029 A 
ATOM     22  C   UNL     1       1.718   2.766   0.000  0.00  0.00    +0.022 A 
ATOM     23  C   UNL     1       0.968   4.065   0.000  0.00  0.00    +0.041 A 
ATOM     24 CL   UNL     1      -0.532   4.065   0.000  0.00  0.00    -0.084 Cl
ATOM     25  C   UNL     1       1.718   5.364   0.000  0.00  0.00    +0.022 A 
ATOM     26  C   UNL     1       3.218   5.364   0.000  0.00  0.00    +0.029 A 
ENDBRANCH  19  20
TORSDOF 3