REMARK  Name = 53710
REMARK  6 active torsions:
REMARK  status: ('A' for Active; 'I' for Inactive)
REMARK    1  A    between atoms: C_3  and  O_11
REMARK    2  A    between atoms: C_6  and  O_7
REMARK    3  A    between atoms: O_7  and  C_8
REMARK    4  A    between atoms: C_8  and  C_10
REMARK    5  A    between atoms: O_11  and  C_12
REMARK    6  A    between atoms: C_12  and  C_14
REMARK                            x       y       z     vdW  Elec       q    Type
REMARK                         _______ _______ _______ _____ _____    ______ ____
ROOT
ATOM      1  O   UNL     1      -5.946  -0.750   0.000  0.00  0.00    -0.334 OA
ATOM      2  C   UNL     1      -7.245  -1.500   0.000  0.00  0.00    +0.239 C 
ATOM      3  C   UNL     1      -7.245  -3.000   0.000  0.00  0.00    +0.337 C 
ATOM      8  O   UNL     1      -5.946  -3.750   0.000  0.00  0.00    -0.334 OA
ATOM      9  C   UNL     1      -4.647  -3.000   0.000  0.00  0.00    +0.239 C 
ATOM     10  C   UNL     1      -4.647  -1.500   0.000  0.00  0.00    +0.337 C 
ENDROOT
BRANCH   3   4
ATOM      4  O   UNL     1      -8.544  -3.750   0.000  0.00  0.00    -0.433 OA
BRANCH   4   5
ATOM      5  C   UNL     1      -9.843  -3.000   0.000  0.00  0.00    +0.306 C 
ATOM      6  C   UNL     1      -9.843  -1.500   0.000  0.00  0.00    +0.136 C 
ATOM      7  O   UNL     1     -11.142  -3.750   0.000  0.00  0.00    -0.251 OA
ENDBRANCH   4   5
ENDBRANCH   3   4
BRANCH  10  11
ATOM     11  O   UNL     1      -3.348  -0.750   0.000  0.00  0.00    -0.433 OA
BRANCH  11  12
ATOM     12  C   UNL     1      -2.049  -1.500   0.000  0.00  0.00    +0.306 C 
ATOM     13  C   UNL     1      -2.049  -3.000   0.000  0.00  0.00    +0.136 C 
ATOM     14  O   UNL     1      -0.750  -0.750   0.000  0.00  0.00    -0.251 OA
ENDBRANCH  11  12
ENDBRANCH  10  11
TORSDOF 4