REMARK  Name = 61642
REMARK  4 active torsions:
REMARK  status: ('A' for Active; 'I' for Inactive)
REMARK    1  A    between atoms: C_5  and  C_13
REMARK    2  A    between atoms: C_6  and  C_19
REMARK    3  A    between atoms: C_16  and  N_25
REMARK    4  A    between atoms: C_22  and  N_26
REMARK                            x       y       z     vdW  Elec       q    Type
REMARK                         _______ _______ _______ _____ _____    ______ ____
ROOT
ATOM      1  N   UNL     1       7.245   3.000   0.000  0.00  0.00    -0.238 NA
ATOM      2  C   UNL     1       8.544   3.750   0.000  0.00  0.00    +0.148 A 
ATOM      3  C   UNL     1       9.843   3.000   0.000  0.00  0.00    +0.149 A 
ATOM      4  N   UNL     1       9.843   1.500   0.000  0.00  0.00    -0.341 N 
ATOM      5  H   UNL     1      10.696   1.008   0.000  0.00  0.00    +0.144 HD
ATOM      6  H   UNL     1       8.991   1.008   0.000  0.00  0.00    +0.144 HD
ATOM      7  N   UNL     1      11.142   3.750   0.000  0.00  0.00    -0.198 NA
ATOM      8  C   UNL     1      11.142   5.250   0.000  0.00  0.00    +0.216 A 
ATOM      9  N   UNL     1      12.441   6.000   0.000  0.00  0.00    -0.327 N 
ATOM     10  H   UNL     1      12.441   6.984   0.000  0.00  0.00    +0.145 HD
ATOM     11  H   UNL     1      13.294   5.508   0.000  0.00  0.00    +0.145 HD
ATOM     12  N   UNL     1       9.843   6.000   0.000  0.00  0.00    -0.193 NA
ATOM     13  C   UNL     1       8.544   5.250   0.000  0.00  0.00    +0.186 A 
ATOM     14  N   UNL     1       7.245   6.000   0.000  0.00  0.00    -0.224 NA
ATOM     15  C   UNL     1       5.946   5.250   0.000  0.00  0.00    +0.099 A 
ATOM     25  C   UNL     1       5.946   3.750   0.000  0.00  0.00    +0.098 A 
ENDROOT
BRANCH  15  16
ATOM     16  C   UNL     1       4.647   6.000   0.000  0.00  0.00    +0.003 A 
ATOM     17  C   UNL     1       3.348   5.250   0.000  0.00  0.00    +0.012 A 
ATOM     18  C   UNL     1       2.049   6.000   0.000  0.00  0.00    +0.023 A 
ATOM     19  C   UNL     1       2.049   7.500   0.000  0.00  0.00    +0.025 A 
ATOM     23  C   UNL     1       3.348   8.250   0.000  0.00  0.00    +0.023 A 
ATOM     24  C   UNL     1       4.647   7.500   0.000  0.00  0.00    +0.012 A 
BRANCH  19  20
ATOM     20  N   UNL     1       0.750   8.250   0.000  0.00  0.00    -0.358 N 
ATOM     21  H   UNL     1      -0.103   7.758   0.000  0.00  0.00    +0.142 HD
ATOM     22  H   UNL     1       0.750   9.234   0.000  0.00  0.00    +0.142 HD
ENDBRANCH  19  20
ENDBRANCH  15  16
BRANCH  25  26
ATOM     26  C   UNL     1       4.647   3.000   0.000  0.00  0.00    +0.003 A 
ATOM     27  C   UNL     1       4.647   1.500   0.000  0.00  0.00    +0.012 A 
ATOM     28  C   UNL     1       3.348   0.750   0.000  0.00  0.00    +0.023 A 
ATOM     29  C   UNL     1       2.049   1.500   0.000  0.00  0.00    +0.025 A 
ATOM     33  C   UNL     1       2.049   3.000   0.000  0.00  0.00    +0.023 A 
ATOM     34  C   UNL     1       3.348   3.750   0.000  0.00  0.00    +0.012 A 
BRANCH  29  30
ATOM     30  N   UNL     1       0.750   0.750   0.000  0.00  0.00    -0.358 N 
ATOM     31  H   UNL     1       0.750  -0.234   0.000  0.00  0.00    +0.142 HD
ATOM     32  H   UNL     1      -0.103   1.242   0.000  0.00  0.00    +0.142 HD
ENDBRANCH  29  30
ENDBRANCH  25  26
TORSDOF 4