REMARK  Name = 4263
REMARK  1 active torsions:
REMARK  status: ('A' for Active; 'I' for Inactive)
REMARK    1  A    between atoms: C_9  and  N_15
REMARK                            x       y       z     vdW  Elec       q    Type
REMARK                         _______ _______ _______ _____ _____    ______ ____
ROOT
ATOM      1  N   UNL     1       2.731   5.250   0.000  0.00  0.00    -0.253 NA
ATOM      2  C   UNL     1       4.030   4.500   0.000  0.00  0.00    +0.097 A 
ATOM      3  C   UNL     1       4.030   3.000   0.000  0.00  0.00    +0.009 A 
ATOM      4  C   UNL     1       2.731   2.250   0.000  0.00  0.00    +0.012 A 
ATOM      5  C   UNL     1       1.432   3.000   0.000  0.00  0.00    +0.020 A 
ATOM      6  C   UNL     1       5.329   2.250   0.000  0.00  0.00    +0.095 A 
ATOM      7  C   UNL     1       6.628   3.000   0.000  0.00  0.00    +0.283 A 
ATOM     11  C   UNL     1       6.628   4.500   0.000  0.00  0.00    +0.080 A 
ATOM     12  C   UNL     1       7.928   5.250   0.000  0.00  0.00    +0.018 A 
ATOM     13  C   UNL     1       7.928   6.750   0.000  0.00  0.00    +0.021 A 
ATOM     14  C   UNL     1       6.628   7.500   0.000  0.00  0.00    +0.111 A 
ATOM     15  N   UNL     1       5.329   6.750   0.000  0.00  0.00    -0.253 NA
ATOM     16  C   UNL     1       5.329   5.250   0.000  0.00  0.00    +0.103 A 
ATOM     17  C   UNL     1       1.432   4.500   0.000  0.00  0.00    +0.111 A 
ENDROOT
BRANCH   7   8
ATOM      8  N   UNL     1       7.928   2.250   0.000  0.00  0.00    +0.080 N 
ATOM      9  O   UNL     1       7.928   0.750   0.000  0.00  0.00    +0.041 OA
ATOM     10  O   UNL     1       9.226   3.000   0.000  0.00  0.00    -0.576 OA
ENDBRANCH   7   8
TORSDOF 1