REMARK  Name = 92264
REMARK  1 active torsions:
REMARK  status: ('A' for Active; 'I' for Inactive)
REMARK    1  A    between atoms: C_8  and  C_15
REMARK                            x       y       z     vdW  Elec       q    Type
REMARK                         _______ _______ _______ _____ _____    ______ ____
ROOT
ATOM      1  O   UNL     1      -7.389  -6.921   0.000  0.00  0.00    -0.268 OA
ATOM      2  C   UNL     1      -6.454  -5.748   0.000  0.00  0.00    +0.251 A 
ATOM      3  C   UNL     1      -7.105  -4.396   0.000  0.00  0.00    +0.093 A 
ATOM      4  C   UNL     1      -6.454  -3.045   0.000  0.00  0.00    +0.046 A 
ATOM      5  C   UNL     1      -7.389  -1.872   0.000  0.00  0.00    +0.066 C 
ATOM      6  N   UNL     1      -4.992  -2.711   0.000  0.00  0.00    -0.233 NA
ATOM      7  C   UNL     1      -3.819  -3.647   0.000  0.00  0.00    +0.157 A 
ATOM      8  C   UNL     1      -3.819  -5.146   0.000  0.00  0.00    +0.103 A 
ATOM      9  C   UNL     1      -2.520  -5.896   0.000  0.00  0.00    +0.141 A 
ATOM     10  N   UNL     1      -1.221  -5.146   0.000  0.00  0.00    -0.243 NA
ATOM     11  C   UNL     1      -1.221  -3.646   0.000  0.00  0.00    +0.198 A 
ATOM     12  N   UNL     1      -2.520  -2.896   0.000  0.00  0.00    -0.329 N 
ATOM     13  H   UNL     1      -2.520  -1.396   0.000  0.00  0.00    +0.168 HD
ATOM     14  N   UNL     1      -4.992  -6.082   0.000  0.00  0.00    -0.318 N 
ATOM     15  H   UNL     1      -4.658  -7.544   0.000  0.00  0.00    +0.169 HD
ENDROOT
TORSDOF 0