REMARK  Name = 503425
REMARK  1 active torsions:
REMARK  status: ('A' for Active; 'I' for Inactive)
REMARK    1  A    between atoms: C_2  and  S_11
REMARK                            x       y       z     vdW  Elec       q    Type
REMARK                         _______ _______ _______ _____ _____    ______ ____
ROOT
ATOM      1  C   UNL     1      -6.607  -0.750   0.000  0.00  0.00    +0.030 A 
ATOM      2  C   UNL     1      -5.308  -1.500   0.000  0.00  0.00    +0.080 A 
ATOM      3  C   UNL     1      -5.308  -3.000   0.000  0.00  0.00    +0.041 A 
ATOM      4  C   UNL     1      -6.607  -3.750   0.000  0.00  0.00    +0.037 A 
ATOM      5  C   UNL     1      -7.906  -3.000   0.000  0.00  0.00    +0.042 A 
ATOM      6 CL   UNL     1      -9.205  -3.750   0.000  0.00  0.00    -0.084 Cl
ATOM      7  S   UNL     1      -3.882  -3.463   0.000  0.00  0.00    -0.061 S 
ATOM      8  C   UNL     1      -3.000  -2.250   0.000  0.00  0.00    +0.133 A 
ATOM     11  N   UNL     1      -3.882  -1.037   0.000  0.00  0.00    -0.233 NA
ATOM     12  C   UNL     1      -7.906  -1.500   0.000  0.00  0.00    +0.022 A 
ENDROOT
BRANCH   8   9
ATOM      9  S   UNL     1      -1.500  -2.250   0.000  0.00  0.00    -0.116 S 
ATOM     10  H   UNL     1      -0.750  -0.951   0.000  0.00  0.00    +0.109 HD
ENDBRANCH   8   9
TORSDOF 1