REMARK  Name = 50650
REMARK  7 active torsions:
REMARK  status: ('A' for Active; 'I' for Inactive)
REMARK    1  A    between atoms: C_2  and  O_24
REMARK    2  A    between atoms: C_4  and  N_23
REMARK    3  A    between atoms: C_7  and  O_26
REMARK    4  A    between atoms: C_9  and  C_21
REMARK    5  A    between atoms: C_11  and  O_20
REMARK    6  A    between atoms: O_24  and  C_25
REMARK    7  A    between atoms: O_26  and  C_27
REMARK                            x       y       z     vdW  Elec       q    Type
REMARK                         _______ _______ _______ _____ _____    ______ ____
ROOT
ATOM      1  O   UNL     1      -9.551   7.836   0.000  0.00  0.00    -0.455 OA
ATOM      2  C   UNL     1     -11.043   7.993   0.000  0.00  0.00    +0.136 A 
ATOM      3  C   UNL     1     -11.924   9.207   0.000  0.00  0.00    +0.047 A 
ATOM      4  C   UNL     1     -13.416   9.050   0.000  0.00  0.00    +0.004 A 
ATOM      5  C   UNL     1     -14.026   7.680   0.000  0.00  0.00    +0.001 A 
ATOM      6  C   UNL     1     -13.145   6.466   0.000  0.00  0.00    +0.012 A 
ATOM      7  C   UNL     1     -11.653   6.623   0.000  0.00  0.00    +0.028 A 
ATOM      8  C   UNL     1     -10.538   5.619   0.000  0.00  0.00    +0.031 A 
ATOM      9  C   UNL     1     -10.538   4.119   0.000  0.00  0.00    +0.058 A 
ATOM     10  C   UNL     1      -9.239   3.369   0.000  0.00  0.00    +0.130 A 
ATOM     13  C   UNL     1      -7.940   4.119   0.000  0.00  0.00    +0.082 A 
ATOM     28  C   UNL     1      -7.940   5.619   0.000  0.00  0.00    +0.063 A 
ATOM     29  C   UNL     1      -9.239   6.369   0.000  0.00  0.00    +0.137 A 
ENDROOT
BRANCH  13  14
ATOM     14  C   UNL     1      -6.641   3.369   0.000  0.00  0.00    +0.252 C 
ATOM     15  N   UNL     1      -6.641   1.869   0.000  0.00  0.00    -0.278 N 
ATOM     16  H   UNL     1      -7.493   1.377   0.000  0.00  0.00    +0.155 HD
ATOM     27  O   UNL     1      -5.342   4.119   0.000  0.00  0.00    -0.270 OA
BRANCH  15  17
ATOM     17  C   UNL     1      -5.342   1.119   0.000  0.00  0.00    +0.079 A 
ATOM     18  C   UNL     1      -5.342  -0.381   0.000  0.00  0.00    +0.072 A 
ATOM     19  C   UNL     1      -4.043  -1.131   0.000  0.00  0.00    +0.122 A 
ATOM     22  C   UNL     1      -2.744  -0.381   0.000  0.00  0.00    +0.049 A 
ATOM     23  C   UNL     1      -2.744   1.119   0.000  0.00  0.00    +0.051 A 
ATOM     24  C   UNL     1      -4.043   1.869   0.000  0.00  0.00    +0.141 A 
BRANCH  19  20
ATOM     20  O   UNL     1      -4.043  -2.631   0.000  0.00  0.00    -0.495 OA
ATOM     21  C   UNL     1      -5.342  -3.381   0.000  0.00  0.00    +0.277 C 
ENDBRANCH  19  20
BRANCH  24  25
ATOM     25  O   UNL     1      -4.043   3.369   0.000  0.00  0.00    -0.493 OA
ATOM     26  C   UNL     1      -2.744   4.119   0.000  0.00  0.00    +0.277 C 
ENDBRANCH  24  25
ENDBRANCH  15  17
ENDBRANCH  13  14
BRANCH  10  11
ATOM     11  O   UNL     1      -9.239   1.869   0.000  0.00  0.00    -0.506 OA
ATOM     12  H   UNL     1     -10.050   1.401   0.000  0.00  0.00    +0.292 HD
ENDBRANCH  10  11
TORSDOF 5