REMARK  Name = 43506
REMARK  8 active torsions:
REMARK  status: ('A' for Active; 'I' for Inactive)
REMARK    1  A    between atoms: N_1  and  P_2
REMARK    2  A    between atoms: P_2  and  O_4
REMARK    3  A    between atoms: P_2  and  N_6
REMARK    4  A    between atoms: O_4  and  C_11
REMARK    5  A    between atoms: C_8  and  C_19
REMARK    6  A    between atoms: C_10  and  C_17
REMARK    7  A    between atoms: C_17  and  C_18
REMARK    8  A    between atoms: C_19  and  C_20
REMARK                            x       y       z     vdW  Elec       q    Type
REMARK                         _______ _______ _______ _____ _____    ______ ____
ROOT
ATOM      6  P   UNL     1       6.422  -1.025   0.000  0.00  0.00    +0.399 P 
ATOM     20  O   UNL     1       7.172   0.275   0.000  0.00  0.00    -0.240 OA
ENDROOT
BRANCH   6   1
ATOM      1  N   UNL     1       5.123  -0.275   0.000  0.00  0.00    -0.203 NA
ATOM      2  C   UNL     1       3.623  -0.275   0.000  0.00  0.00    +0.082 C 
ATOM      5  C   UNL     1       4.373   1.025   0.000  0.00  0.00    +0.115 C 
BRANCH   2   3
ATOM      3  C   UNL     1       2.324  -1.025   0.000  0.00  0.00    +0.017 C 
ATOM      4  C   UNL     1       1.025  -0.275   0.000  0.00  0.00    +0.005 C 
ENDBRANCH   2   3
ENDBRANCH   6   1
BRANCH   6  15
ATOM     15  N   UNL     1       7.721  -1.775   0.000  0.00  0.00    -0.203 NA
ATOM     16  C   UNL     1       9.221  -1.775   0.000  0.00  0.00    +0.082 C 
ATOM     19  C   UNL     1       8.471  -3.074   0.000  0.00  0.00    +0.115 C 
BRANCH  16  17
ATOM     17  C   UNL     1      10.520  -1.025   0.000  0.00  0.00    +0.017 C 
ATOM     18  C   UNL     1      11.819  -1.775   0.000  0.00  0.00    +0.005 C 
ENDBRANCH  16  17
ENDBRANCH   6  15
BRANCH   6   7
ATOM      7  O   UNL     1       5.672  -2.324   0.000  0.00  0.00    -0.421 OA
BRANCH   7   8
ATOM      8  C   UNL     1       6.422  -3.623   0.000  0.00  0.00    +0.130 A 
ATOM      9  C   UNL     1       5.672  -4.922   0.000  0.00  0.00    +0.047 A 
ATOM     10  C   UNL     1       6.422  -6.221   0.000  0.00  0.00    +0.023 A 
ATOM     11  C   UNL     1       7.922  -6.221   0.000  0.00  0.00    +0.041 A 
ATOM     12  C   UNL     1       8.672  -4.922   0.000  0.00  0.00    +0.023 A 
ATOM     13 CL   UNL     1       8.672  -7.520   0.000  0.00  0.00    -0.084 Cl
ATOM     14  C   UNL     1       7.922  -3.623   0.000  0.00  0.00    +0.047 A 
ENDBRANCH   7   8
ENDBRANCH   6   7
TORSDOF 6