REMARK  Name = 622691
REMARK  6 active torsions:
REMARK  status: ('A' for Active; 'I' for Inactive)
REMARK    1  A    between atoms: N_4  and  C_13
REMARK    2  A    between atoms: N_7  and  C_8
REMARK    3  A    between atoms: C_8  and  N_10
REMARK    4  A    between atoms: N_10  and  C_11
REMARK    5  A    between atoms: N_10  and  C_12
REMARK    6  A    between atoms: C_13  and  C_14
REMARK                            x       y       z     vdW  Elec       q    Type
REMARK                         _______ _______ _______ _____ _____    ______ ____
ROOT
ATOM      1  S   UNL     1      -0.496   2.071   0.000  0.00  0.00    -0.014 S 
ATOM      2  C   UNL     1      -0.869   0.618   0.000  0.00  0.00    +0.173 A 
ATOM      3  N   UNL     1      -2.264   0.065   0.000  0.00  0.00    -0.168 NA
ATOM      9  N   UNL     1       0.398  -0.186   0.000  0.00  0.00    -0.302 N 
ATOM     16  C   UNL     1       1.553   0.770   0.000  0.00  0.00    +0.134 A 
ATOM     17  S   UNL     1       3.006   0.398   0.000  0.00  0.00    -0.024 S 
ATOM     18  S   UNL     1       1.001   2.165   0.000  0.00  0.00    -0.023 S 
ENDROOT
BRANCH   3   4
ATOM      4  C   UNL     1      -3.439   0.997   0.000  0.00  0.00    +0.158 C 
ATOM      8  S   UNL     1      -4.834   0.444   0.000  0.00  0.00    -0.017 S 
BRANCH   4   5
ATOM      5  N   UNL     1      -3.220   2.481   0.000  0.00  0.00    -0.317 N 
ATOM      6  C   UNL     1      -4.396   3.412   0.000  0.00  0.00    +0.130 C 
ATOM      7  C   UNL     1      -1.826   3.033   0.000  0.00  0.00    +0.130 C 
ENDBRANCH   4   5
ENDBRANCH   3   4
BRANCH   9  10
ATOM     10  C   UNL     1       0.492  -1.683   0.000  0.00  0.00    +0.199 C 
BRANCH  10  11
ATOM     11  C   UNL     1       1.836  -2.350   0.000  0.00  0.00    +0.125 A 
ATOM     12  O   UNL     1       3.165  -1.655   0.000  0.00  0.00    -0.466 OA
ATOM     13  C   UNL     1       4.237  -2.704   0.000  0.00  0.00    +0.195 A 
ATOM     14  C   UNL     1       3.570  -4.048   0.000  0.00  0.00    +0.041 A 
ATOM     15  C   UNL     1       2.086  -3.829   0.000  0.00  0.00    +0.046 A 
ENDBRANCH  10  11
ENDBRANCH   9  10
TORSDOF 4