REMARK  Name = 66020
REMARK  1 active torsions:
REMARK  status: ('A' for Active; 'I' for Inactive)
REMARK    1  A    between atoms: C_11  and  C_12
REMARK                            x       y       z     vdW  Elec       q    Type
REMARK                         _______ _______ _______ _____ _____    ______ ____
ROOT
ATOM      1  O   UNL     1      -2.251  -4.335   0.000  0.00  0.00    -0.273 OA
ATOM      2  C   UNL     1      -1.669  -2.952   0.000  0.00  0.00    +0.239 C 
ATOM      3  C   UNL     1      -2.662  -1.828   0.000  0.00  0.00    +0.238 C 
ATOM      4  N   UNL     1      -2.402  -0.351   0.000  0.00  0.00    -0.272 NA
ATOM      5  C   UNL     1      -1.085   0.367   0.000  0.00  0.00    +0.091 C 
ATOM      6  C   UNL     1       0.298  -0.215   0.000  0.00  0.00    +0.025 A 
ATOM      7  C   UNL     1       1.345   0.859   0.000  0.00  0.00    +0.032 A 
ATOM      8  C   UNL     1       2.799   0.489   0.000  0.00  0.00    +0.042 A 
ATOM      9  C   UNL     1       3.205  -0.954   0.000  0.00  0.00    +0.022 A 
ATOM     10  C   UNL     1       2.158  -2.029   0.000  0.00  0.00    +0.025 A 
ATOM     11 CL   UNL     1       3.846   1.564   0.000  0.00  0.00    -0.084 Cl
ATOM     12  C   UNL     1       0.705  -1.659   0.000  0.00  0.00    +0.043 A 
ATOM     19  N   UNL     1      -0.171  -2.877   0.000  0.00  0.00    -0.283 N 
ATOM     20  H   UNL     1       0.547  -4.194   0.000  0.00  0.00    +0.155 HD
ENDROOT
BRANCH   5  13
ATOM     13  C   UNL     1      -1.160   1.865   0.000  0.00  0.00    +0.065 A 
ATOM     14  C   UNL     1      -2.416   2.685   0.000  0.00  0.00    +0.029 A 
ATOM     15  C   UNL     1      -2.025   4.133   0.000  0.00  0.00    +0.019 A 
ATOM     16  C   UNL     1      -0.527   4.208   0.000  0.00  0.00    +0.083 A 
ATOM     17  N   UNL     1       0.008   2.807   0.000  0.00  0.00    -0.359 N 
ATOM     18  H   UNL     1       1.456   2.415   0.000  0.00  0.00    +0.165 HD
ENDBRANCH   5  13
TORSDOF 1