REMARK  Name = 680495
REMARK  2 active torsions:
REMARK  status: ('A' for Active; 'I' for Inactive)
REMARK    1  A    between atoms: C_8  and  N_11
REMARK    2  A    between atoms: N_12  and  C_13
REMARK                            x       y       z     vdW  Elec       q    Type
REMARK                         _______ _______ _______ _____ _____    ______ ____
ROOT
ATOM      1  C   UNL     1       1.674   1.400   0.000  0.00  0.00    +0.001 A 
ATOM      2  C   UNL     1       2.973   2.150   0.000  0.00  0.00    +0.010 A 
ATOM      3  C   UNL     1       4.272   1.400   0.000  0.00  0.00    +0.001 A 
ATOM      4  C   UNL     1       5.571   2.150   0.000  0.00  0.00    +0.014 A 
ATOM      5  C   UNL     1       6.870   1.400   0.000  0.00  0.00    +0.050 A 
ATOM      6  C   UNL     1       6.870  -0.101   0.000  0.00  0.00    +0.175 A 
ATOM     16  N   UNL     1       5.571  -0.851   0.000  0.00  0.00    -0.226 NA
ATOM     17  C   UNL     1       4.272  -0.101   0.000  0.00  0.00    +0.073 A 
ATOM     18  C   UNL     1       2.973  -0.851   0.000  0.00  0.00    +0.028 A 
ATOM     19  C   UNL     1       1.674  -0.101   0.000  0.00  0.00    +0.002 A 
ENDROOT
BRANCH   6   7
ATOM      7  N   UNL     1       8.169  -0.851   0.000  0.00  0.00    -0.129 NA
ATOM      8  N   UNL     1       9.468  -0.101   0.000  0.00  0.00    -0.148 NA
BRANCH   8   9
ATOM      9  C   UNL     1      10.767  -0.851   0.000  0.00  0.00    +0.086 A 
ATOM     10  C   UNL     1      12.066  -0.101   0.000  0.00  0.00    +0.030 A 
ATOM     11  C   UNL     1      13.365  -0.851   0.000  0.00  0.00    +0.017 A 
ATOM     12  C   UNL     1      13.365  -2.350   0.000  0.00  0.00    +0.018 A 
ATOM     13 BR   UNL     1      14.664  -3.100   0.000  0.00  0.00    -0.050 Br
ATOM     14  C   UNL     1      12.066  -3.100   0.000  0.00  0.00    +0.017 A 
ATOM     15  C   UNL     1      10.767  -2.350   0.000  0.00  0.00    +0.030 A 
ENDBRANCH   8   9
ENDBRANCH   6   7
TORSDOF 2