REMARK  Name = 42212
REMARK  1 active torsions:
REMARK  status: ('A' for Active; 'I' for Inactive)
REMARK    1  A    between atoms: C_5  and  C_10
REMARK                            x       y       z     vdW  Elec       q    Type
REMARK                         _______ _______ _______ _____ _____    ______ ____
ROOT
ATOM      1  O   UNL     1      -5.284   2.185   0.000  0.00  0.00    -0.291 OA
ATOM      2  C   UNL     1      -6.399   1.181   0.000  0.00  0.00    +0.180 C 
ATOM      3  C   UNL     1      -7.866   1.493   0.000  0.00  0.00    +0.029 A 
ATOM      4  C   UNL     1      -8.616   2.792   0.000  0.00  0.00    +0.012 A 
ATOM      5  C   UNL     1     -10.116   2.792   0.000  0.00  0.00    +0.001 A 
ATOM      6  C   UNL     1     -10.866   1.493   0.000  0.00  0.00    +0.001 A 
ATOM      7  C   UNL     1     -10.116   0.194   0.000  0.00  0.00    +0.012 A 
ATOM      8  C   UNL     1      -8.616   0.194   0.000  0.00  0.00    +0.029 A 
ATOM      9  C   UNL     1      -7.612  -0.921   0.000  0.00  0.00    +0.180 C 
ATOM     10  O   UNL     1      -7.924  -2.388   0.000  0.00  0.00    -0.291 OA
ATOM     11  C   UNL     1      -6.242  -0.311   0.000  0.00  0.00    +0.179 C 
ENDROOT
BRANCH  11  12
ATOM     12  C   UNL     1      -4.943  -1.061   0.000  0.00  0.00    +0.059 A 
ATOM     13  C   UNL     1      -4.943  -2.561   0.000  0.00  0.00    +0.024 A 
ATOM     14  C   UNL     1      -3.644  -3.311   0.000  0.00  0.00    +0.003 A 
ATOM     15  C   UNL     1      -2.345  -2.561   0.000  0.00  0.00    +0.020 A 
ATOM     16  C   UNL     1      -2.345  -1.061   0.000  0.00  0.00    +0.111 A 
ATOM     17  N   UNL     1      -3.644  -0.311   0.000  0.00  0.00    -0.259 NA
ENDBRANCH  11  12
TORSDOF 1