REMARK  Name = 90749
REMARK  6 active torsions:
REMARK  status: ('A' for Active; 'I' for Inactive)
REMARK    1  A    between atoms: C_12  and  C_18
REMARK    2  A    between atoms: C_14  and  N_19
REMARK    3  A    between atoms: N_19  and  C_20
REMARK    4  A    between atoms: N_19  and  C_22
REMARK    5  A    between atoms: C_20  and  C_21
REMARK    6  A    between atoms: C_22  and  C_23
REMARK                            x       y       z     vdW  Elec       q    Type
REMARK                         _______ _______ _______ _____ _____    ______ ____
ROOT
ATOM      1  S   UNL     1      -4.272 -13.400   0.000  0.00  0.00    -0.018 S 
ATOM      2  C   UNL     1      -2.973 -12.650   0.000  0.00  0.00    +0.143 C 
ATOM      3  N   UNL     1      -1.674 -13.400   0.000  0.00  0.00    -0.263 N 
ATOM      4  H   UNL     1      -1.674 -14.900   0.000  0.00  0.00    +0.157 HD
ATOM      5  C   UNL     1      -0.375 -12.650   0.000  0.00  0.00    +0.255 C 
ATOM      6  C   UNL     1      -0.375 -11.150   0.000  0.00  0.00    +0.100 C 
ATOM      7  C   UNL     1       0.924 -10.400   0.000  0.00  0.00    +0.026 C 
ATOM     19  C   UNL     1      -1.674 -10.400   0.000  0.00  0.00    +0.255 C 
ATOM     20  O   UNL     1      -1.674  -8.899   0.000  0.00  0.00    -0.270 OA
ATOM     21  O   UNL     1       0.924 -13.400   0.000  0.00  0.00    -0.270 OA
ATOM     22  N   UNL     1      -2.973 -11.150   0.000  0.00  0.00    -0.263 N 
ATOM     23  H   UNL     1      -4.272 -10.400   0.000  0.00  0.00    +0.157 HD
ENDROOT
BRANCH   7   8
ATOM      8  C   UNL     1       2.223 -11.150   0.000  0.00  0.00    -0.024 A 
ATOM      9  C   UNL     1       2.223 -12.650   0.000  0.00  0.00    +0.010 A 
ATOM     10  C   UNL     1       3.522 -13.400   0.000  0.00  0.00    +0.024 A 
ATOM     11  C   UNL     1       4.821 -12.650   0.000  0.00  0.00    +0.030 A 
ATOM     17  C   UNL     1       4.821 -11.150   0.000  0.00  0.00    +0.024 A 
ATOM     18  C   UNL     1       3.522 -10.400   0.000  0.00  0.00    +0.010 A 
BRANCH  11  12
ATOM     12  N   UNL     1       6.120 -13.400   0.000  0.00  0.00    -0.330 N 
BRANCH  12  13
ATOM     13  C   UNL     1       6.120 -14.900   0.000  0.00  0.00    +0.102 C 
ATOM     14  C   UNL     1       7.419 -15.650   0.000  0.00  0.00    +0.024 C 
ENDBRANCH  12  13
BRANCH  12  15
ATOM     15  C   UNL     1       7.419 -12.650   0.000  0.00  0.00    +0.102 C 
ATOM     16  C   UNL     1       8.718 -13.400   0.000  0.00  0.00    +0.024 C 
ENDBRANCH  12  15
ENDBRANCH  11  12
ENDBRANCH   7   8
TORSDOF 4