REMARK  Name = 41833
REMARK  2 active torsions:
REMARK  status: ('A' for Active; 'I' for Inactive)
REMARK    1  A    between atoms: C_1  and  O_11
REMARK    2  A    between atoms: C_4  and  C_10
REMARK                            x       y       z     vdW  Elec       q    Type
REMARK                         _______ _______ _______ _____ _____    ______ ____
ROOT
ATOM      1  C   UNL     1      -5.721  -2.250   0.000  0.00  0.00    +0.217 A 
ATOM      4  C   UNL     1      -7.021  -3.000   0.000  0.00  0.00    +0.088 A 
ATOM      5  C   UNL     1      -7.021  -4.500   0.000  0.00  0.00    +0.021 A 
ATOM      6  C   UNL     1      -8.319  -5.250   0.000  0.00  0.00    +0.063 C 
ATOM      7  N   UNL     1      -5.721  -5.250   0.000  0.00  0.00    -0.328 N 
ATOM      8  H   UNL     1      -5.721  -6.750   0.000  0.00  0.00    +0.168 HD
ATOM      9  C   UNL     1      -4.422  -4.500   0.000  0.00  0.00    +0.224 A 
ATOM     10  N   UNL     1      -3.123  -5.250   0.000  0.00  0.00    -0.266 NA
ATOM     11  H   UNL     1      -1.824  -4.500   0.000  0.00  0.00    +0.190 HD
ATOM     12  N   UNL     1      -4.422  -3.000   0.000  0.00  0.00    -0.178 NA
ENDROOT
BRANCH   1   2
ATOM      2  O   UNL     1      -5.721  -0.750   0.000  0.00  0.00    -0.492 OA
ATOM      3  H   UNL     1      -4.910  -0.281   0.000  0.00  0.00    +0.294 HD
ENDBRANCH   1   2
TORSDOF 1