REMARK  Name = 636717
REMARK  3 active torsions:
REMARK  status: ('A' for Active; 'I' for Inactive)
REMARK    1  A    between atoms: C_13  and  C_17
REMARK    2  A    between atoms: C_14  and  O_18
REMARK    3  A    between atoms: O_18  and  C_19
REMARK                            x       y       z     vdW  Elec       q    Type
REMARK                         _______ _______ _______ _____ _____    ______ ____
ROOT
ATOM      1  C   UNL     1       7.316   5.110   0.000  0.00  0.00    +0.190 C 
ATOM      2  O   UNL     1       7.628   6.577   0.000  0.00  0.00    -0.287 OA
ATOM      3  C   UNL     1       8.320   3.995   0.000  0.00  0.00    +0.025 A 
ATOM      4  C   UNL     1       9.820   3.995   0.000  0.00  0.00    +0.012 A 
ATOM      5  C   UNL     1      10.570   2.696   0.000  0.00  0.00    +0.001 A 
ATOM      6  C   UNL     1       9.820   1.397   0.000  0.00  0.00    +0.000 A 
ATOM      7  C   UNL     1       8.320   1.397   0.000  0.00  0.00    +0.004 A 
ATOM      8  C   UNL     1       7.570   2.696   0.000  0.00  0.00    -0.032 A 
ATOM      9  C   UNL     1       6.103   3.008   0.000  0.00  0.00    +0.074 C 
ATOM     10  C   UNL     1       5.946   4.500   0.000  0.00  0.00    +0.005 C 
ATOM     11  C   UNL     1       4.647   5.250   0.000  0.00  0.00    +0.019 C 
ENDROOT
BRANCH  11  12
ATOM     12  C   UNL     1       3.348   4.500   0.000  0.00  0.00    +0.017 A 
ATOM     13  C   UNL     1       3.348   3.000   0.000  0.00  0.00    +0.127 A 
ATOM     16  C   UNL     1       2.049   2.250   0.000  0.00  0.00    +0.046 A 
ATOM     17  C   UNL     1       0.750   3.000   0.000  0.00  0.00    +0.004 A 
ATOM     18  C   UNL     1       0.750   4.500   0.000  0.00  0.00    +0.001 A 
ATOM     19  C   UNL     1       2.049   5.250   0.000  0.00  0.00    +0.011 A 
BRANCH  13  14
ATOM     14  O   UNL     1       4.647   2.250   0.000  0.00  0.00    -0.495 OA
ATOM     15  C   UNL     1       4.647   0.750   0.000  0.00  0.00    +0.277 C 
ENDBRANCH  13  14
ENDBRANCH  11  12
TORSDOF 2