REMARK  Name = 5053
REMARK  3 active torsions:
REMARK  status: ('A' for Active; 'I' for Inactive)
REMARK    1  A    between atoms: N_2  and  C_15
REMARK    2  A    between atoms: N_3  and  C_19
REMARK    3  A    between atoms: C_6  and  C_7
REMARK                            x       y       z     vdW  Elec       q    Type
REMARK                         _______ _______ _______ _____ _____    ______ ____
ROOT
ATOM      1  N   UNL     1       7.941   1.297   0.000  0.00  0.00    +0.003 N 
ATOM      8  N   UNL     1       7.191  -0.003   0.000  0.00  0.00    +0.066 N 
ATOM     15  N   UNL     1       8.194  -1.117   0.000  0.00  0.00    +0.058 NA
ATOM     16  C   UNL     1       9.565  -0.507   0.000  0.00  0.00    +0.254 A 
ATOM     23  N   UNL     1       9.408   0.985   0.000  0.00  0.00    -0.085 NA
ENDROOT
BRANCH   1   2
ATOM      2  C   UNL     1       7.331   2.667   0.000  0.00  0.00    +0.130 A 
ATOM      3  C   UNL     1       5.839   2.824   0.000  0.00  0.00    +0.033 A 
ATOM      4  C   UNL     1       5.229   4.194   0.000  0.00  0.00    +0.002 A 
ATOM      5  C   UNL     1       6.111   5.407   0.000  0.00  0.00    +0.000 A 
ATOM      6  C   UNL     1       7.602   5.251   0.000  0.00  0.00    +0.002 A 
ATOM      7  C   UNL     1       8.212   3.880   0.000  0.00  0.00    +0.033 A 
ENDBRANCH   1   2
BRANCH   8   9
ATOM      9  C   UNL     1       5.699  -0.159   0.000  0.00  0.00    +0.270 A 
ATOM     10  C   UNL     1       4.817   1.054   0.000  0.00  0.00    +0.084 A 
ATOM     11  C   UNL     1       3.326   0.897   0.000  0.00  0.00    +0.007 A 
ATOM     12  C   UNL     1       2.716  -0.473   0.000  0.00  0.00    +0.000 A 
ATOM     13  C   UNL     1       3.597  -1.686   0.000  0.00  0.00    +0.007 A 
ATOM     14  C   UNL     1       5.089  -1.530   0.000  0.00  0.00    +0.084 A 
ENDBRANCH   8   9
BRANCH  16  17
ATOM     17  C   UNL     1      10.864  -1.257   0.000  0.00  0.00    +0.027 A 
ATOM     18  C   UNL     1      12.163  -0.507   0.000  0.00  0.00    +0.012 A 
ATOM     19  C   UNL     1      13.462  -1.257   0.000  0.00  0.00    +0.001 A 
ATOM     20  C   UNL     1      13.462  -2.757   0.000  0.00  0.00    +0.000 A 
ATOM     21  C   UNL     1      12.163  -3.507   0.000  0.00  0.00    +0.001 A 
ATOM     22  C   UNL     1      10.864  -2.757   0.000  0.00  0.00    +0.012 A 
ENDBRANCH  16  17
TORSDOF 3