REMARK  Name = 43271
REMARK  4 active torsions:
REMARK  status: ('A' for Active; 'I' for Inactive)
REMARK    1  A    between atoms: C_5  and  N_16
REMARK    2  A    between atoms: C_6  and  C_14
REMARK    3  A    between atoms: C_9  and  N_16
REMARK    4  A    between atoms: C_10  and  C_17
REMARK                            x       y       z     vdW  Elec       q    Type
REMARK                         _______ _______ _______ _____ _____    ______ ____
ROOT
ATOM      1  N   UNL     1      -1.574   3.275   0.000  0.00  0.00    -0.219 NA
ATOM      2  C   UNL     1      -0.275   2.525   0.000  0.00  0.00    +0.215 A 
ATOM      3  N   UNL     1      -0.275   1.025   0.000  0.00  0.00    -0.327 N 
ATOM      4  H   UNL     1       0.578   0.532   0.000  0.00  0.00    +0.145 HD
ATOM      5  H   UNL     1      -1.127   0.532   0.000  0.00  0.00    +0.145 HD
ATOM      6  N   UNL     1       1.025   3.275   0.000  0.00  0.00    -0.198 NA
ATOM      7  C   UNL     1       1.025   4.774   0.000  0.00  0.00    +0.142 A 
ATOM     18  C   UNL     1      -0.275   5.524   0.000  0.00  0.00    +0.079 A 
ATOM     19 BR   UNL     1      -0.275   7.024   0.000  0.00  0.00    -0.045 Br
ATOM     20  C   UNL     1      -1.574   4.774   0.000  0.00  0.00    +0.059 A 
ATOM     21  C   UNL     1      -2.873   5.524   0.000  0.00  0.00    +0.067 C 
ENDROOT
BRANCH   7   8
ATOM      8  N   UNL     1       2.324   5.524   0.000  0.00  0.00    -0.298 N 
ATOM      9  H   UNL     1       3.176   5.032   0.000  0.00  0.00    +0.154 HD
BRANCH   8  10
ATOM     10  C   UNL     1       2.324   7.024   0.000  0.00  0.00    +0.032 A 
ATOM     11  C   UNL     1       3.623   7.774   0.000  0.00  0.00    +0.024 A 
ATOM     12  C   UNL     1       3.623   9.274   0.000  0.00  0.00    +0.020 A 
ATOM     13  C   UNL     1       2.324  10.025   0.000  0.00  0.00    +0.052 A 
ATOM     16  C   UNL     1       1.025   9.274   0.000  0.00  0.00    +0.020 A 
ATOM     17  C   UNL     1       1.025   7.774   0.000  0.00  0.00    +0.024 A 
BRANCH  13  14
ATOM     14  C   UNL     1       2.324  11.525   0.000  0.00  0.00    +0.099 C 
ATOM     15  N   UNL     1       2.324  13.025   0.000  0.00  0.00    -0.191 NA
ENDBRANCH  13  14
ENDBRANCH   8  10
ENDBRANCH   7   8
TORSDOF 3