REMARK  Name = 7950
REMARK  3 active torsions:
REMARK  status: ('A' for Active; 'I' for Inactive)
REMARK    1  A    between atoms: C_2  and  C_6
REMARK    2  A    between atoms: C_8  and  N_13
REMARK    3  A    between atoms: C_10  and  O_14
REMARK                            x       y       z     vdW  Elec       q    Type
REMARK                         _______ _______ _______ _____ _____    ______ ____
ROOT
ATOM      3  C   UNL     1       5.571  -0.851   0.000  0.00  0.00    -0.016 A 
ATOM      4  C   UNL     1       4.272  -1.601   0.000  0.00  0.00    +0.012 A 
ATOM      5  C   UNL     1       2.973  -0.851   0.000  0.00  0.00    +0.048 A 
ATOM      6  C   UNL     1       2.973   0.649   0.000  0.00  0.00    +0.137 A 
ATOM      9  C   UNL     1       4.272   1.400   0.000  0.00  0.00    +0.067 A 
ATOM     13  C   UNL     1       5.571   0.649   0.000  0.00  0.00    +0.035 A 
ENDROOT
BRANCH   3   2
ATOM      1  C   UNL     1       8.169  -0.851   0.000  0.00  0.00    +0.008 A 
ATOM      2  C   UNL     1       6.870  -1.601   0.000  0.00  0.00    -0.018 A 
ATOM     14  C   UNL     1       6.870  -3.100   0.000  0.00  0.00    +0.008 A 
ATOM     15  C   UNL     1       8.169  -3.850   0.000  0.00  0.00    +0.001 A 
ATOM     16  C   UNL     1       9.468  -3.100   0.000  0.00  0.00    +0.000 A 
ATOM     17  C   UNL     1       9.468  -1.601   0.000  0.00  0.00    +0.001 A 
ENDBRANCH   3   2
BRANCH   9  10
ATOM     10  N   UNL     1       4.272   2.900   0.000  0.00  0.00    -0.355 N 
ATOM     11  H   UNL     1       3.419   3.392   0.000  0.00  0.00    +0.142 HD
ATOM     12  H   UNL     1       5.125   3.392   0.000  0.00  0.00    +0.142 HD
ENDBRANCH   9  10
BRANCH   6   7
ATOM      7  O   UNL     1       1.674   1.400   0.000  0.00  0.00    -0.505 OA
ATOM      8  H   UNL     1       1.674   2.336   0.000  0.00  0.00    +0.292 HD
ENDBRANCH   6   7
TORSDOF 3