REMARK  Name = 54709
REMARK  4 active torsions:
REMARK  status: ('A' for Active; 'I' for Inactive)
REMARK    1  A    between atoms: N_2  and  C_27
REMARK    2  A    between atoms: C_3  and  C_26
REMARK    3  A    between atoms: C_12  and  C_25
REMARK    4  A    between atoms: C_17  and  O_24
REMARK                            x       y       z     vdW  Elec       q    Type
REMARK                         _______ _______ _______ _____ _____    ______ ____
ROOT
ATOM      1  O   UNL     1      -3.447  -3.558   0.000  0.00  0.00    -0.292 OA
ATOM      2  C   UNL     1      -3.911  -4.984   0.000  0.00  0.00    +0.167 C 
ATOM      3  C   UNL     1      -3.029  -6.198   0.000  0.00  0.00    +0.009 C 
ATOM      4  C   UNL     1      -1.529  -6.198   0.000  0.00  0.00    +0.077 C 
ATOM     10  C   UNL     1      -3.911  -7.411   0.000  0.00  0.00    +0.044 C 
ATOM     11  C   UNL     1      -5.337  -6.948   0.000  0.00  0.00    +0.011 C 
ATOM     12  C   UNL     1      -6.636  -7.698   0.000  0.00  0.00    +0.001 C 
ATOM     13  C   UNL     1      -6.636  -9.198   0.000  0.00  0.00    +0.031 C 
ATOM     14  C   UNL     1      -7.936  -9.948   0.000  0.00  0.00    -0.027 C 
ATOM     15  C   UNL     1      -9.235  -9.198   0.000  0.00  0.00    -0.065 C 
ATOM     16  C   UNL     1     -10.534  -9.948   0.000  0.00  0.00    +0.062 C 
ATOM     17  C   UNL     1     -11.833  -9.198   0.000  0.00  0.00    +0.119 C 
ATOM     20  C   UNL     1     -11.833  -7.698   0.000  0.00  0.00    +0.032 C 
ATOM     21  C   UNL     1     -10.534  -6.948   0.000  0.00  0.00    +0.014 C 
ATOM     22  C   UNL     1      -9.235  -7.698   0.000  0.00  0.00    -0.008 C 
ATOM     23  C   UNL     1      -9.235  -6.198   0.000  0.00  0.00    +0.016 C 
ATOM     24  C   UNL     1      -7.936  -6.948   0.000  0.00  0.00    +0.003 C 
ATOM     25  C   UNL     1      -7.936  -5.448   0.000  0.00  0.00    +0.005 C 
ATOM     26  C   UNL     1      -6.636  -4.698   0.000  0.00  0.00    +0.015 C 
ATOM     27  C   UNL     1      -5.337  -5.448   0.000  0.00  0.00    +0.034 C 
ATOM     28  C   UNL     1      -5.181  -3.956   0.000  0.00  0.00    +0.020 C 
ENDROOT
BRANCH   4   5
ATOM      5  N   UNL     1      -0.779  -7.497   0.000  0.00  0.00    -0.335 N 
ATOM      6  C   UNL     1      -1.389  -8.867   0.000  0.00  0.00    +0.104 C 
ATOM      7  C   UNL     1      -0.275  -9.871   0.000  0.00  0.00    +0.020 C 
ATOM      8  C   UNL     1       1.025  -9.121   0.000  0.00  0.00    +0.020 C 
ATOM      9  C   UNL     1       0.713  -7.653   0.000  0.00  0.00    +0.104 C 
ENDBRANCH   4   5
BRANCH  17  18
ATOM     18  O   UNL     1     -13.132  -9.948   0.000  0.00  0.00    -0.391 OA
ATOM     19  H   UNL     1     -13.972  -9.463   0.000  0.00  0.00    +0.210 HD
ENDBRANCH  17  18
TORSDOF 2