REMARK  Name = 88324
REMARK  1 active torsions:
REMARK  status: ('A' for Active; 'I' for Inactive)
REMARK    1  A    between atoms: C_4  and  N_9
REMARK                            x       y       z     vdW  Elec       q    Type
REMARK                         _______ _______ _______ _____ _____    ______ ____
ROOT
ATOM      1 BR   UNL     1      -4.821  -5.149   0.000  0.00  0.00    -0.050 Br
ATOM      2  C   UNL     1      -3.522  -4.399   0.000  0.00  0.00    +0.019 A 
ATOM      3  C   UNL     1      -2.223  -5.149   0.000  0.00  0.00    +0.032 A 
ATOM      4  C   UNL     1      -0.924  -4.399   0.000  0.00  0.00    +0.040 A 
ATOM      5  C   UNL     1      -0.924  -2.900   0.000  0.00  0.00    +0.039 A 
ATOM      9  C   UNL     1      -2.223  -2.150   0.000  0.00  0.00    +0.025 A 
ATOM     10 BR   UNL     1       0.375  -5.149   0.000  0.00  0.00    -0.048 Br
ATOM     11  C   UNL     1      -3.522  -2.900   0.000  0.00  0.00    +0.017 A 
ENDROOT
BRANCH   5   6
ATOM      6  N   UNL     1       0.375  -2.150   0.000  0.00  0.00    -0.357 N 
ATOM      7  H   UNL     1       0.375  -1.165   0.000  0.00  0.00    +0.142 HD
ATOM      8  H   UNL     1       1.228  -2.642   0.000  0.00  0.00    +0.142 HD
ENDBRANCH   5   6
TORSDOF 1