REMARK  Name = 58347
REMARK  3 active torsions:
REMARK  status: ('A' for Active; 'I' for Inactive)
REMARK    1  A    between atoms: N_4  and  C_20
REMARK    2  A    between atoms: N_7  and  C_11
REMARK    3  A    between atoms: N_8  and  C_15
REMARK                            x       y       z     vdW  Elec       q    Type
REMARK                         _______ _______ _______ _____ _____    ______ ____
ROOT
ATOM      1  O   UNL     1      12.831  -8.250   0.000  0.00  0.00    -0.252 OA
ATOM      2  C   UNL     1      11.532  -7.500   0.000  0.00  0.00    +0.315 C 
ATOM      3  N   UNL     1      11.532  -6.000   0.000  0.00  0.00    -0.227 N 
ATOM      4  C   UNL     1      12.831  -5.250   0.000  0.00  0.00    +0.143 C 
ATOM      5  C   UNL     1      10.233  -5.250   0.000  0.00  0.00    +0.258 C 
ATOM      6  C   UNL     1       8.934  -6.000   0.000  0.00  0.00    +0.299 C 
ATOM      7  C   UNL     1       8.934  -7.500   0.000  0.00  0.00    +0.256 C 
ATOM      8  O   UNL     1       7.635  -8.250   0.000  0.00  0.00    -0.272 OA
ATOM     18  O   UNL     1      10.233  -3.750   0.000  0.00  0.00    -0.272 OA
ATOM     19  N   UNL     1      10.233  -8.250   0.000  0.00  0.00    -0.237 N 
ATOM     20  H   UNL     1      10.233  -9.750   0.000  0.00  0.00    +0.159 HD
ENDROOT
BRANCH   6   9
ATOM      9  N   UNL     1       6.790  -4.763   0.000  0.00  0.00    -0.165 NA
ATOM     10  N   UNL     1       6.790  -3.263   0.000  0.00  0.00    -0.153 NA
BRANCH  10  11
ATOM     11  C   UNL     1       5.492  -2.513   0.000  0.00  0.00    +0.086 A 
ATOM     12  C   UNL     1       5.492  -1.013   0.000  0.00  0.00    +0.031 A 
ATOM     13  C   UNL     1       4.192  -0.263   0.000  0.00  0.00    +0.022 A 
ATOM     14  C   UNL     1       2.893  -1.013   0.000  0.00  0.00    +0.041 A 
ATOM     15  C   UNL     1       2.893  -2.513   0.000  0.00  0.00    +0.022 A 
ATOM     16 CL   UNL     1       1.594  -0.263   0.000  0.00  0.00    -0.084 Cl
ATOM     17  C   UNL     1       4.192  -3.263   0.000  0.00  0.00    +0.031 A 
ENDBRANCH  10  11
ENDBRANCH   6   9
TORSDOF 2