REMARK  Name = 630602
REMARK  5 active torsions:
REMARK  status: ('A' for Active; 'I' for Inactive)
REMARK    1  A    between atoms: C_8  and  C_13
REMARK    2  A    between atoms: C_9  and  C_19
REMARK    3  A    between atoms: C_10  and  O_12
REMARK    4  A    between atoms: O_12  and  C_25
REMARK    5  A    between atoms: C_25  and  C_26
REMARK                            x       y       z     vdW  Elec       q    Type
REMARK                         _______ _______ _______ _____ _____    ______ ____
ROOT
ATOM      1  C   UNL     1       5.946   3.750   0.000  0.00  0.00    +0.150 C 
ATOM      2  N   UNL     1       7.245   3.000   0.000  0.00  0.00    -0.259 N 
ATOM      3  C   UNL     1       7.245   1.500   0.000  0.00  0.00    +0.403 C 
ATOM      7  O   UNL     1       5.946   0.750   0.000  0.00  0.00    -0.226 OA
ATOM      8  C   UNL     1       8.544   3.750   0.000  0.00  0.00    +0.150 C 
ATOM      9  C   UNL     1       8.544   5.250   0.000  0.00  0.00    +0.017 C 
ATOM     10  C   UNL     1       9.843   6.000   0.000  0.00  0.00    +0.017 C 
ATOM     17  C   UNL     1       7.245   6.000   0.000  0.00  0.00    +0.188 C 
ATOM     18  O   UNL     1       7.245   7.500   0.000  0.00  0.00    -0.287 OA
ATOM     19  C   UNL     1       5.946   5.250   0.000  0.00  0.00    +0.017 C 
ATOM     20  C   UNL     1       4.647   6.000   0.000  0.00  0.00    +0.017 C 
ENDROOT
BRANCH  10  11
ATOM     11  C   UNL     1      11.142   5.250   0.000  0.00  0.00    -0.025 A 
ATOM     12  C   UNL     1      11.142   3.750   0.000  0.00  0.00    +0.008 A 
ATOM     13  C   UNL     1      12.441   3.000   0.000  0.00  0.00    +0.001 A 
ATOM     14  C   UNL     1      13.740   3.750   0.000  0.00  0.00    +0.000 A 
ATOM     15  C   UNL     1      13.740   5.250   0.000  0.00  0.00    +0.001 A 
ATOM     16  C   UNL     1      12.441   6.000   0.000  0.00  0.00    +0.008 A 
ENDBRANCH  10  11
BRANCH  20  21
ATOM     21  C   UNL     1       3.348   5.250   0.000  0.00  0.00    -0.025 A 
ATOM     22  C   UNL     1       3.348   3.750   0.000  0.00  0.00    +0.008 A 
ATOM     23  C   UNL     1       2.049   3.000   0.000  0.00  0.00    +0.001 A 
ATOM     24  C   UNL     1       0.750   3.750   0.000  0.00  0.00    +0.000 A 
ATOM     25  C   UNL     1       0.750   5.250   0.000  0.00  0.00    +0.001 A 
ATOM     26  C   UNL     1       2.049   6.000   0.000  0.00  0.00    +0.008 A 
ENDBRANCH  20  21
BRANCH   3   4
ATOM      4  O   UNL     1       8.544   0.750   0.000  0.00  0.00    -0.451 OA
BRANCH   4   5
ATOM      5  C   UNL     1       9.843   1.500   0.000  0.00  0.00    +0.230 C 
ATOM      6  C   UNL     1      11.142   0.750   0.000  0.00  0.00    +0.048 C 
ENDBRANCH   4   5
ENDBRANCH   3   4
TORSDOF 4