REMARK  Name = 4426
REMARK  1 active torsions:
REMARK  status: ('A' for Active; 'I' for Inactive)
REMARK    1  A    between atoms: C_6  and  C_9
REMARK                            x       y       z     vdW  Elec       q    Type
REMARK                         _______ _______ _______ _____ _____    ______ ____
ROOT
ATOM      1  N   UNL     1      -5.471  -7.024   0.000  0.00  0.00    -0.181 NA
ATOM      2  C   UNL     1      -4.172  -7.774   0.000  0.00  0.00    +0.217 A 
ATOM      3  N   UNL     1      -4.172  -9.274   0.000  0.00  0.00    -0.327 N 
ATOM      4  H   UNL     1      -3.319  -9.767   0.000  0.00  0.00    +0.145 HD
ATOM      5  H   UNL     1      -5.024  -9.767   0.000  0.00  0.00    +0.145 HD
ATOM      6  N   UNL     1      -2.873  -7.024   0.000  0.00  0.00    -0.199 NA
ATOM      7  C   UNL     1      -2.873  -5.524   0.000  0.00  0.00    +0.143 A 
ATOM     14  N   UNL     1      -4.172  -4.774   0.000  0.00  0.00    -0.199 NA
ATOM     15  C   UNL     1      -5.471  -5.524   0.000  0.00  0.00    +0.217 A 
ATOM     16  N   UNL     1      -6.770  -4.774   0.000  0.00  0.00    -0.327 N 
ATOM     17  H   UNL     1      -7.622  -5.267   0.000  0.00  0.00    +0.145 HD
ATOM     18  H   UNL     1      -6.770  -3.790   0.000  0.00  0.00    +0.145 HD
ENDROOT
BRANCH   7   8
ATOM      8  C   UNL     1      -1.574  -4.774   0.000  0.00  0.00    +0.079 C 
ATOM      9  C   UNL     1      -0.275  -5.524   0.000  0.00  0.00    -0.020 C 
ATOM     10  C   UNL     1       1.025  -4.774   0.000  0.00  0.00    -0.030 C 
ATOM     11  C   UNL     1       1.025  -3.275   0.000  0.00  0.00    +0.027 C 
ATOM     12  C   UNL     1      -0.275  -2.525   0.000  0.00  0.00    +0.005 C 
ATOM     13  C   UNL     1      -1.574  -3.275   0.000  0.00  0.00    +0.015 C 
ENDBRANCH   7   8
TORSDOF 1