REMARK  Name = 9461
REMARK  2 active torsions:
REMARK  status: ('A' for Active; 'I' for Inactive)
REMARK    1  A    between atoms: C_2  and  C_8
REMARK    2  A    between atoms: C_8  and  O_10
REMARK                            x       y       z     vdW  Elec       q    Type
REMARK                         _______ _______ _______ _____ _____    ______ ____
ROOT
ATOM      1  C   UNL     1      -2.223  -3.650   0.000  0.00  0.00    +0.033 A 
ATOM      2  C   UNL     1      -0.924  -4.399   0.000  0.00  0.00    +0.078 A 
ATOM      7  C   UNL     1      -0.924  -5.899   0.000  0.00  0.00    +0.125 A 
ATOM      8  N   UNL     1      -2.223  -6.649   0.000  0.00  0.00    -0.261 NA
ATOM      9  C   UNL     1      -3.522  -5.899   0.000  0.00  0.00    +0.126 A 
ATOM     10  C   UNL     1      -3.522  -4.399   0.000  0.00  0.00    +0.037 A 
ATOM     11 BR   UNL     1      -4.821  -3.650   0.000  0.00  0.00    -0.049 Br
ENDROOT
BRANCH   2   3
ATOM      3  C   UNL     1       0.375  -3.650   0.000  0.00  0.00    +0.338 C 
ATOM      6  O   UNL     1       1.674  -4.399   0.000  0.00  0.00    -0.245 OA
BRANCH   3   4
ATOM      4  O   UNL     1       0.375  -2.150   0.000  0.00  0.00    -0.477 OA
ATOM      5  H   UNL     1       1.186  -1.681   0.000  0.00  0.00    +0.295 HD
ENDBRANCH   3   4
ENDBRANCH   2   3
TORSDOF 2