REMARK  Name = 89258
REMARK  0 active torsions:
REMARK  status: ('A' for Active; 'I' for Inactive)
REMARK                            x       y       z     vdW  Elec       q    Type
REMARK                         _______ _______ _______ _____ _____    ______ ____
ROOT
ATOM      1  O   UNL     1       4.647   0.750   0.000  0.00  0.00    -0.455 OA
ATOM      2  C   UNL     1       3.348   1.500   0.000  0.00  0.00    +0.136 A 
ATOM      3  C   UNL     1       2.049   0.750   0.000  0.00  0.00    +0.047 A 
ATOM      4  C   UNL     1       0.750   1.500   0.000  0.00  0.00    +0.004 A 
ATOM      5  C   UNL     1       0.750   3.000   0.000  0.00  0.00    +0.001 A 
ATOM      6  C   UNL     1       2.049   3.750   0.000  0.00  0.00    +0.012 A 
ATOM      7  C   UNL     1       3.348   3.000   0.000  0.00  0.00    +0.025 A 
ATOM      8  C   UNL     1       4.647   3.750   0.000  0.00  0.00    -0.003 A 
ATOM      9  C   UNL     1       5.946   3.000   0.000  0.00  0.00    +0.032 A 
ATOM     10  C   UNL     1       7.245   3.750   0.000  0.00  0.00    -0.014 A 
ATOM     11  C   UNL     1       8.544   3.000   0.000  0.00  0.00    +0.009 A 
ATOM     12  C   UNL     1       8.544   1.500   0.000  0.00  0.00    +0.004 A 
ATOM     13  C   UNL     1       7.245   0.750   0.000  0.00  0.00    +0.047 A 
ATOM     14  C   UNL     1       7.245   5.250   0.000  0.00  0.00    +0.008 A 
ATOM     15  C   UNL     1       5.946   6.000   0.000  0.00  0.00    +0.001 A 
ATOM     16  C   UNL     1       4.647   5.250   0.000  0.00  0.00    +0.009 A 
ATOM     17  C   UNL     1       5.946   1.500   0.000  0.00  0.00    +0.137 A 
ENDROOT
TORSDOF 0