REMARK  Name = 83497
REMARK  6 active torsions:
REMARK  status: ('A' for Active; 'I' for Inactive)
REMARK    1  A    between atoms: N_1  and  C_21
REMARK    2  A    between atoms: N_2  and  C_4
REMARK    3  A    between atoms: C_7  and  C_23
REMARK    4  A    between atoms: C_15  and  C_21
REMARK    5  A    between atoms: C_17  and  O_19
REMARK    6  A    between atoms: O_19  and  C_20
REMARK                            x       y       z     vdW  Elec       q    Type
REMARK                         _______ _______ _______ _____ _____    ______ ____
ROOT
ATOM      1  N   UNL     1       8.544   5.250   0.000  0.00  0.00    -0.321 N 
ATOM     12  C   UNL     1       8.544   3.750   0.000  0.00  0.00    +0.124 C 
ATOM     13  C   UNL     1       9.843   3.000   0.000  0.00  0.00    +0.124 C 
ATOM     14  N   UNL     1      11.142   3.750   0.000  0.00  0.00    -0.327 N 
ATOM     15  C   UNL     1      11.142   5.250   0.000  0.00  0.00    +0.124 C 
ATOM     23  C   UNL     1       9.843   6.000   0.000  0.00  0.00    +0.124 C 
ENDROOT
BRANCH  14  16
ATOM     16  C   UNL     1      12.441   3.000   0.000  0.00  0.00    +0.033 A 
ATOM     17  C   UNL     1      12.441   1.500   0.000  0.00  0.00    -0.029 A 
ATOM     18  C   UNL     1      11.142   0.750   0.000  0.00  0.00    +0.045 C 
ATOM     19  C   UNL     1      13.740   0.750   0.000  0.00  0.00    +0.005 A 
ATOM     20  C   UNL     1      15.039   1.500   0.000  0.00  0.00    +0.000 A 
ATOM     21  C   UNL     1      15.039   3.000   0.000  0.00  0.00    +0.002 A 
ATOM     22  C   UNL     1      13.740   3.750   0.000  0.00  0.00    +0.023 A 
ENDBRANCH  14  16
BRANCH   1   2
ATOM      2  C   UNL     1       7.245   6.000   0.000  0.00  0.00    +0.082 C 
ATOM      3  S   UNL     1       7.245   7.500   0.000  0.00  0.00    -0.035 S 
BRANCH   2   4
ATOM      4  C   UNL     1       5.946   5.250   0.000  0.00  0.00    +0.004 A 
ATOM      5  C   UNL     1       5.946   3.750   0.000  0.00  0.00    +0.014 A 
ATOM      6  C   UNL     1       4.647   3.000   0.000  0.00  0.00    +0.046 A 
ATOM      7  C   UNL     1       3.348   3.750   0.000  0.00  0.00    +0.120 A 
ATOM     10  C   UNL     1       3.348   5.250   0.000  0.00  0.00    +0.046 A 
ATOM     11  C   UNL     1       4.647   6.000   0.000  0.00  0.00    +0.014 A 
BRANCH   7   8
ATOM      8  O   UNL     1       2.049   3.000   0.000  0.00  0.00    -0.495 OA
ATOM      9  C   UNL     1       0.750   3.750   0.000  0.00  0.00    +0.277 C 
ENDBRANCH   7   8
ENDBRANCH   2   4
ENDBRANCH   1   2
TORSDOF 4