REMARK  Name = 83339
REMARK  3 active torsions:
REMARK  status: ('A' for Active; 'I' for Inactive)
REMARK    1  A    between atoms: C_6  and  C_8
REMARK    2  A    between atoms: C_10  and  O_12
REMARK    3  A    between atoms: O_12  and  C_13
REMARK                            x       y       z     vdW  Elec       q    Type
REMARK                         _______ _______ _______ _____ _____    ______ ____
ROOT
ATOM      1  N   UNL     1       2.781   6.941   0.000  0.00  0.00    -0.106 NA
ATOM      2  N   UNL     1       3.785   8.056   0.000  0.00  0.00    -0.093 NA
ATOM      3  C   UNL     1       3.035   9.355   0.000  0.00  0.00    +0.305 A 
ATOM      4  N   UNL     1       3.645  10.725   0.000  0.00  0.00    -0.312 N 
ATOM      5  H   UNL     1       3.067  11.522   0.000  0.00  0.00    +0.147 HD
ATOM      6  H   UNL     1       4.624  10.828   0.000  0.00  0.00    +0.147 HD
ATOM      7  O   UNL     1       1.568   9.043   0.000  0.00  0.00    -0.405 OA
ATOM      8  C   UNL     1       1.411   7.551   0.000  0.00  0.00    +0.250 A 
ENDROOT
BRANCH   8   9
ATOM      9  C   UNL     1       0.112   6.801   0.000  0.00  0.00    +0.042 A 
ATOM     10  C   UNL     1       0.112   5.301   0.000  0.00  0.00    +0.058 A 
ATOM     11  C   UNL     1      -1.187   4.551   0.000  0.00  0.00    +0.121 A 
ATOM     14  C   UNL     1      -2.486   5.301   0.000  0.00  0.00    +0.045 A 
ATOM     15  C   UNL     1      -2.486   6.801   0.000  0.00  0.00    +0.004 A 
ATOM     16  C   UNL     1      -1.187   7.551   0.000  0.00  0.00    +0.013 A 
BRANCH  11  12
ATOM     12  O   UNL     1      -1.187   3.051   0.000  0.00  0.00    -0.495 OA
ATOM     13  C   UNL     1      -2.486   2.301   0.000  0.00  0.00    +0.277 C 
ENDBRANCH  11  12
ENDBRANCH   8   9
TORSDOF 2