REMARK  Name = 70413
REMARK  4 active torsions:
REMARK  status: ('A' for Active; 'I' for Inactive)
REMARK    1  A    between atoms: N_2  and  C_23
REMARK    2  A    between atoms: C_6  and  O_24
REMARK    3  A    between atoms: C_19  and  O_21
REMARK    4  A    between atoms: C_22  and  C_23
REMARK                            x       y       z     vdW  Elec       q    Type
REMARK                         _______ _______ _______ _____ _____    ______ ____
ROOT
ATOM      1  O   UNL     1      -0.505  -1.992   0.000  0.00  0.00    -0.476 OA
ATOM      2  C   UNL     1      -0.808  -1.197   0.000  0.00  0.00    +0.167 A 
ATOM      3  C   UNL     1      -1.645  -1.197   0.000  0.00  0.00    +0.159 A 
ATOM      6  C   UNL     1      -2.063  -0.472   0.000  0.00  0.00    +0.049 A 
ATOM      7  C   UNL     1      -1.645   0.252   0.000  0.00  0.00    +0.008 A 
ATOM      8  C   UNL     1      -0.808   0.252   0.000  0.00  0.00    -0.038 A 
ATOM      9  C   UNL     1      -0.389   0.977   0.000  0.00  0.00    +0.057 C 
ATOM     10  C   UNL     1       0.447   0.977   0.000  0.00  0.00    +0.094 C 
ATOM     11  C   UNL     1       0.866   0.252   0.000  0.00  0.00    +0.096 C 
ATOM     14  C   UNL     1       0.447  -0.472   0.000  0.00  0.00    +0.075 C 
ATOM     15  C   UNL     1       1.257  -0.472   0.000  0.00  0.00    +0.034 C 
ATOM     16  C   UNL     1       1.257   1.788   0.000  0.00  0.00    +0.086 C 
ATOM     17  C   UNL     1       1.704   0.250   0.000  0.00  0.00    +0.045 C 
ATOM     18  C   UNL     1       2.123  -0.475   0.000  0.00  0.00    +0.081 C 
ATOM     19  C   UNL     1       1.704  -1.200   0.000  0.00  0.00    +0.175 C 
ATOM     20  O   UNL     1       2.119  -1.919   0.000  0.00  0.00    -0.293 OA
ATOM     21  N   UNL     1       0.447   1.788   0.000  0.00  0.00    -0.293 NA
ATOM     25  C   UNL     1      -0.389  -0.472   0.000  0.00  0.00    +0.014 A 
ATOM     26  C   UNL     1       0.867  -1.200   0.000  0.00  0.00    +0.252 C 
ENDROOT
BRANCH   3   4
ATOM      4  O   UNL     1      -2.059  -1.916   0.000  0.00  0.00    -0.503 OA
ATOM      5  H   UNL     1      -2.996  -1.916   0.000  0.00  0.00    +0.292 HD
ENDBRANCH   3   4
BRANCH  11  12
ATOM     12  O   UNL     1       0.036   0.253   0.000  0.00  0.00    -0.386 OA
ATOM     13  H   UNL     1      -0.448   1.094   0.000  0.00  0.00    +0.210 HD
ENDBRANCH  11  12
BRANCH  21  22
ATOM     22  C   UNL     1      -0.271   2.203   0.000  0.00  0.00    +0.111 C 
BRANCH  22  23
ATOM     23  C   UNL     1      -0.989   1.788   0.000  0.00  0.00    -0.019 C 
ATOM     24  C   UNL     1      -1.708   2.203   0.000  0.00  0.00    +0.005 C 
ENDBRANCH  22  23
ENDBRANCH  21  22
TORSDOF 4