REMARK  Name = 64876
REMARK  10 active torsions:
REMARK  status: ('A' for Active; 'I' for Inactive)
REMARK    1  A    between atoms: N_2  and  C_28
REMARK    2  A    between atoms: N_5  and  C_33
REMARK    3  A    between atoms: C_11  and  C_28
REMARK    4  A    between atoms: C_13  and  O_27
REMARK    5  A    between atoms: C_14  and  C_29
REMARK    6  A    between atoms: C_20  and  C_33
REMARK    7  A    between atoms: C_21  and  C_29
REMARK    8  A    between atoms: C_22  and  O_32
REMARK    9  A    between atoms: C_29  and  C_30
REMARK   10  A    between atoms: C_29  and  C_31
REMARK                            x       y       z     vdW  Elec       q    Type
REMARK                         _______ _______ _______ _____ _____    ______ ____
ROOT
ATOM      5  C   UNL     1      -0.924   8.899   0.000  0.00  0.00    +0.015 C 
ATOM      6  C   UNL     1      -0.174   7.601   0.000  0.00  0.00    +0.021 C 
ATOM      7  C   UNL     1       0.576   8.899   0.000  0.00  0.00    +0.021 C 
ENDROOT
BRANCH   5   4
ATOM      1 CL   UNL     1      -3.522  13.400   0.000  0.00  0.00    -0.080 Cl
ATOM      2  C   UNL     1      -2.223  12.650   0.000  0.00  0.00    +0.083 A 
ATOM      3  C   UNL     1      -2.223  11.150   0.000  0.00  0.00    +0.028 A 
ATOM      4  C   UNL     1      -0.924  10.400   0.000  0.00  0.00    -0.036 A 
ATOM     24  C   UNL     1       0.375  11.150   0.000  0.00  0.00    +0.013 A 
ATOM     25  C   UNL     1       0.375  12.650   0.000  0.00  0.00    +0.010 A 
ATOM     33  C   UNL     1      -0.924  13.400   0.000  0.00  0.00    +0.139 A 
BRANCH  33  34
ATOM     34  O   UNL     1      -0.924  14.900   0.000  0.00  0.00    -0.505 OA
ATOM     35  H   UNL     1      -0.113  15.368   0.000  0.00  0.00    +0.292 HD
ENDBRANCH  33  34
BRANCH  25  26
ATOM     26  C   UNL     1       1.674  13.400   0.000  0.00  0.00    +0.123 C 
BRANCH  26  27
ATOM     27  N   UNL     1       2.973  12.650   0.000  0.00  0.00    -0.294 NA
ATOM     28  C   UNL     1       4.272  13.400   0.000  0.00  0.00    +0.113 C 
ATOM     29  C   UNL     1       5.571  12.650   0.000  0.00  0.00    +0.175 C 
ATOM     30  O   UNL     1       5.571  11.150   0.000  0.00  0.00    -0.377 OA
ATOM     31  C   UNL     1       4.272  10.400   0.000  0.00  0.00    +0.175 C 
ATOM     32  C   UNL     1       2.973  11.150   0.000  0.00  0.00    +0.113 C 
ENDBRANCH  26  27
ENDBRANCH  25  26
ENDBRANCH   5   4
BRANCH   5   8
ATOM      8  C   UNL     1      -2.223   8.149   0.000  0.00  0.00    -0.036 A 
ATOM      9  C   UNL     1      -3.522   8.899   0.000  0.00  0.00    +0.028 A 
ATOM     10  C   UNL     1      -4.821   8.149   0.000  0.00  0.00    +0.083 A 
ATOM     11  C   UNL     1      -4.821   6.649   0.000  0.00  0.00    +0.139 A 
ATOM     14  C   UNL     1      -3.522   5.899   0.000  0.00  0.00    +0.010 A 
ATOM     22 CL   UNL     1      -6.120   8.899   0.000  0.00  0.00    -0.080 Cl
ATOM     23  C   UNL     1      -2.223   6.649   0.000  0.00  0.00    +0.013 A 
BRANCH  11  12
ATOM     12  O   UNL     1      -6.120   5.899   0.000  0.00  0.00    -0.505 OA
ATOM     13  H   UNL     1      -6.932   6.368   0.000  0.00  0.00    +0.292 HD
ENDBRANCH  11  12
BRANCH  14  15
ATOM     15  C   UNL     1      -3.522   4.399   0.000  0.00  0.00    +0.123 C 
BRANCH  15  16
ATOM     16  N   UNL     1      -2.223   3.650   0.000  0.00  0.00    -0.294 NA
ATOM     17  C   UNL     1      -2.223   2.150   0.000  0.00  0.00    +0.113 C 
ATOM     18  C   UNL     1      -0.924   1.400   0.000  0.00  0.00    +0.175 C 
ATOM     19  O   UNL     1       0.375   2.150   0.000  0.00  0.00    -0.377 OA
ATOM     20  C   UNL     1       0.375   3.650   0.000  0.00  0.00    +0.175 C 
ATOM     21  C   UNL     1      -0.924   4.399   0.000  0.00  0.00    +0.113 C 
ENDBRANCH  15  16
ENDBRANCH  14  15
ENDBRANCH   5   8
TORSDOF 8