REMARK  Name = 85331
REMARK  7 active torsions:
REMARK  status: ('A' for Active; 'I' for Inactive)
REMARK    1  A    between atoms: N_1  and  P_8
REMARK    2  A    between atoms: N_5  and  C_6
REMARK    3  A    between atoms: N_5  and  C_7
REMARK    4  A    between atoms: N_5  and  P_8
REMARK    5  A    between atoms: P_8  and  N_9
REMARK    6  A    between atoms: N_9  and  C_10
REMARK    7  A    between atoms: N_9  and  C_11
REMARK                            x       y       z     vdW  Elec       q    Type
REMARK                         _______ _______ _______ _____ _____    ______ ____
ROOT
ATOM      2  P   UNL     1       3.549   2.250   0.000  0.00  0.00    +0.288 P 
ATOM      9  O   UNL     1       3.549   0.750   0.000  0.00  0.00    -0.269 OA
ENDROOT
BRANCH   2   1
ATOM      1  N   UNL     1       2.049   2.250   0.000  0.00  0.00    -0.226 NA
ATOM     10  C   UNL     1       0.750   1.500   0.000  0.00  0.00    +0.110 C 
ATOM     11  C   UNL     1       0.750   3.000   0.000  0.00  0.00    +0.110 C 
ENDBRANCH   2   1
BRANCH   2   3
ATOM      3  N   UNL     1       5.049   2.250   0.000  0.00  0.00    -0.235 NA
ATOM      4  C   UNL     1       5.799   3.549   0.000  0.00  0.00    +0.114 C 
ATOM      5  C   UNL     1       5.799   0.951   0.000  0.00  0.00    +0.114 C 
ENDBRANCH   2   3
BRANCH   2   6
ATOM      6  N   UNL     1       3.549   3.750   0.000  0.00  0.00    -0.235 NA
ATOM      7  C   UNL     1       4.848   4.500   0.000  0.00  0.00    +0.114 C 
ATOM      8  C   UNL     1       2.250   4.500   0.000  0.00  0.00    +0.114 C 
ENDBRANCH   2   6
TORSDOF 3