REMARK  Name = 665497
REMARK  5 active torsions:
REMARK  status: ('A' for Active; 'I' for Inactive)
REMARK    1  A    between atoms: C_8  and  C_18
REMARK    2  A    between atoms: C_21  and  O_24
REMARK    3  A    between atoms: C_22  and  O_26
REMARK    4  A    between atoms: O_24  and  C_25
REMARK    5  A    between atoms: O_26  and  C_27
REMARK                            x       y       z     vdW  Elec       q    Type
REMARK                         _______ _______ _______ _____ _____    ______ ____
ROOT
ATOM      1  C   UNL     1       3.638  -1.553   0.000  0.00  0.00    +0.167 A 
ATOM      2  O   UNL     1       2.211  -2.016   0.000  0.00  0.00    -0.453 OA
ATOM      3  C   UNL     1       1.330  -0.803   0.000  0.00  0.00    +0.466 C 
ATOM      4  O   UNL     1       2.211   0.411   0.000  0.00  0.00    -0.452 OA
ATOM      5  C   UNL     1       4.937  -2.303   0.000  0.00  0.00    +0.057 A 
ATOM      6  C   UNL     1       6.236  -1.553   0.000  0.00  0.00    +0.011 A 
ATOM      7  C   UNL     1       7.535  -2.303   0.000  0.00  0.00    +0.093 C 
ATOM     18  C   UNL     1       8.834  -1.553   0.000  0.00  0.00    +0.090 C 
ATOM     19  C   UNL     1      10.261  -2.016   0.000  0.00  0.00    +0.340 C 
ATOM     20  O   UNL     1      10.724  -3.443   0.000  0.00  0.00    -0.245 OA
ATOM     21  O   UNL     1      11.142  -0.803   0.000  0.00  0.00    -0.453 OA
ATOM     22  C   UNL     1      10.261   0.411   0.000  0.00  0.00    +0.307 C 
ATOM     23  C   UNL     1       8.834  -0.053   0.000  0.00  0.00    +0.154 C 
ATOM     24  O   UNL     1       7.535   0.697   0.000  0.00  0.00    -0.456 OA
ATOM     25  C   UNL     1       6.236  -0.053   0.000  0.00  0.00    +0.136 A 
ATOM     26  C   UNL     1       4.937   0.697   0.000  0.00  0.00    +0.096 A 
ATOM     27  C   UNL     1       3.638  -0.053   0.000  0.00  0.00    +0.170 A 
ENDROOT
BRANCH   7   8
ATOM      8  C   UNL     1       7.535  -3.803   0.000  0.00  0.00    -0.031 A 
ATOM      9  C   UNL     1       8.834  -4.553   0.000  0.00  0.00    +0.054 A 
ATOM     10  C   UNL     1       8.834  -6.053   0.000  0.00  0.00    +0.162 A 
ATOM     13  C   UNL     1       7.535  -6.803   0.000  0.00  0.00    +0.162 A 
ATOM     16  C   UNL     1       6.236  -6.053   0.000  0.00  0.00    +0.050 A 
ATOM     17  C   UNL     1       6.236  -4.553   0.000  0.00  0.00    +0.008 A 
BRANCH  10  11
ATOM     11  O   UNL     1      10.133  -6.803   0.000  0.00  0.00    -0.491 OA
ATOM     12  C   UNL     1      11.432  -6.053   0.000  0.00  0.00    +0.277 C 
ENDBRANCH  10  11
BRANCH  13  14
ATOM     14  O   UNL     1       7.535  -8.303   0.000  0.00  0.00    -0.491 OA
ATOM     15  C   UNL     1       8.834  -9.053   0.000  0.00  0.00    +0.277 C 
ENDBRANCH  13  14
ENDBRANCH   7   8
TORSDOF 3