REMARK  Name = 5995
REMARK  1 active torsions:
REMARK  status: ('A' for Active; 'I' for Inactive)
REMARK    1  A    between atoms: C_3  and  N_13
REMARK                            x       y       z     vdW  Elec       q    Type
REMARK                         _______ _______ _______ _____ _____    ______ ____
ROOT
ATOM      1  N   UNL     1       9.468  -0.101   0.000  0.00  0.00    -0.240 NA
ATOM      2  C   UNL     1      10.767  -0.851   0.000  0.00  0.00    +0.113 A 
ATOM      3  C   UNL     1      10.767  -2.350   0.000  0.00  0.00    +0.020 A 
ATOM      4  C   UNL     1       9.468  -3.100   0.000  0.00  0.00    +0.005 A 
ATOM      5  C   UNL     1       8.169  -2.350   0.000  0.00  0.00    +0.044 A 
ATOM      6  C   UNL     1       8.169  -0.851   0.000  0.00  0.00    +0.126 A 
ATOM      7  N   UNL     1       6.870  -0.101   0.000  0.00  0.00    -0.254 N 
ATOM      8  H   UNL     1       6.870   0.884   0.000  0.00  0.00    +0.158 HD
ATOM      9  C   UNL     1       5.571  -0.851   0.000  0.00  0.00    +0.309 C 
ATOM     10  O   UNL     1       5.571  -2.350   0.000  0.00  0.00    -0.252 OA
ATOM     11  N   UNL     1       4.272  -0.101   0.000  0.00  0.00    -0.269 N 
ATOM     12  H   UNL     1       3.419  -0.593   0.000  0.00  0.00    +0.156 HD
ENDROOT
BRANCH  11  13
ATOM     13  C   UNL     1       4.272   1.400   0.000  0.00  0.00    +0.035 A 
ATOM     14  C   UNL     1       2.973   2.150   0.000  0.00  0.00    +0.023 A 
ATOM     15  C   UNL     1       2.973   3.650   0.000  0.00  0.00    +0.002 A 
ATOM     16  C   UNL     1       4.272   4.399   0.000  0.00  0.00    +0.000 A 
ATOM     17  C   UNL     1       5.571   3.650   0.000  0.00  0.00    +0.002 A 
ATOM     18  C   UNL     1       5.571   2.150   0.000  0.00  0.00    +0.023 A 
ENDBRANCH  11  13
TORSDOF 1