REMARK  Name = 81703
REMARK  4 active torsions:
REMARK  status: ('A' for Active; 'I' for Inactive)
REMARK    1  A    between atoms: C_3  and  C_15
REMARK    2  A    between atoms: C_4  and  C_16
REMARK    3  A    between atoms: C_16  and  C_17
REMARK    4  A    between atoms: C_17  and  N_18
REMARK                            x       y       z     vdW  Elec       q    Type
REMARK                         _______ _______ _______ _____ _____    ______ ____
ROOT
ATOM      1  H   UNL     1      -8.369  -2.546   0.000  0.00  0.00    +0.166 HD
ATOM      2  N   UNL     1      -7.905  -3.972   0.000  0.00  0.00    -0.354 N 
ATOM      3  C   UNL     1      -8.787  -5.186   0.000  0.00  0.00    +0.047 A 
ATOM      4  C   UNL     1     -10.279  -5.343   0.000  0.00  0.00    +0.026 A 
ATOM      5  C   UNL     1     -10.889  -6.713   0.000  0.00  0.00    +0.002 A 
ATOM      6  C   UNL     1     -10.007  -7.926   0.000  0.00  0.00    +0.001 A 
ATOM      7  C   UNL     1      -8.515  -7.769   0.000  0.00  0.00    +0.010 A 
ATOM      8  C   UNL     1      -7.905  -6.399   0.000  0.00  0.00    +0.007 A 
ATOM      9  C   UNL     1      -6.479  -5.936   0.000  0.00  0.00    +0.008 A 
ATOM     10  C   UNL     1      -5.180  -6.686   0.000  0.00  0.00    +0.011 A 
ATOM     11  C   UNL     1      -3.881  -5.936   0.000  0.00  0.00    +0.004 A 
ATOM     12  C   UNL     1      -3.881  -4.436   0.000  0.00  0.00    -0.041 A 
ATOM     18  C   UNL     1      -5.180  -3.686   0.000  0.00  0.00    -0.023 A 
ATOM     19  C   UNL     1      -5.180  -2.186   0.000  0.00  0.00    +0.046 C 
ATOM     20  C   UNL     1      -6.479  -4.436   0.000  0.00  0.00    +0.051 A 
ENDROOT
BRANCH  12  13
ATOM     13  C   UNL     1      -2.581  -3.686   0.000  0.00  0.00    +0.050 C 
BRANCH  13  14
ATOM     14  C   UNL     1      -1.282  -4.436   0.000  0.00  0.00    +0.082 C 
BRANCH  14  15
ATOM     15  N   UNL     1       0.017  -3.686   0.000  0.00  0.00    -0.330 NA
ATOM     16  H   UNL     1       0.017  -2.666   0.000  0.00  0.00    +0.118 HD
ATOM     17  H   UNL     1       0.900  -4.196   0.000  0.00  0.00    +0.118 HD
ENDBRANCH  14  15
ENDBRANCH  13  14
ENDBRANCH  12  13
TORSDOF 3