REMARK  Name = 92207
REMARK  2 active torsions:
REMARK  status: ('A' for Active; 'I' for Inactive)
REMARK    1  A    between atoms: C_3  and  O_15
REMARK    2  A    between atoms: C_4  and  N_12
REMARK                            x       y       z     vdW  Elec       q    Type
REMARK                         _______ _______ _______ _____ _____    ______ ____
ROOT
ATOM      1  F   UNL     1      -5.571  -3.650   0.000  0.00  0.00    -0.205 F 
ATOM      2  C   UNL     1      -5.571  -2.150   0.000  0.00  0.00    +0.139 A 
ATOM      3  C   UNL     1      -6.870  -1.400   0.000  0.00  0.00    +0.127 A 
ATOM      4  C   UNL     1      -6.870   0.101   0.000  0.00  0.00    +0.319 A 
ATOM      8  C   UNL     1      -5.571   0.851   0.000  0.00  0.00    +0.221 A 
ATOM     11  C   UNL     1      -4.272   0.101   0.000  0.00  0.00    +0.122 A 
ATOM     12  N   UNL     1      -2.973   0.851   0.000  0.00  0.00    -0.251 NA
ATOM     13  C   UNL     1      -1.674   0.101   0.000  0.00  0.00    +0.111 A 
ATOM     14  C   UNL     1      -1.674  -1.400   0.000  0.00  0.00    +0.020 A 
ATOM     15  C   UNL     1      -2.973  -2.150   0.000  0.00  0.00    +0.014 A 
ATOM     16  C   UNL     1      -4.272  -1.400   0.000  0.00  0.00    +0.040 A 
ENDROOT
BRANCH   4   5
ATOM      5  N   UNL     1      -8.169   0.851   0.000  0.00  0.00    +0.084 N 
ATOM      6  O   UNL     1      -8.169   2.350   0.000  0.00  0.00    +0.042 OA
ATOM      7  O   UNL     1      -9.468   0.101   0.000  0.00  0.00    -0.576 OA
ENDBRANCH   4   5
BRANCH   8   9
ATOM      9  O   UNL     1      -5.571   2.350   0.000  0.00  0.00    -0.500 OA
ATOM     10  H   UNL     1      -4.760   2.819   0.000  0.00  0.00    +0.292 HD
ENDBRANCH   8   9
TORSDOF 2