REMARK  Name = 73295
REMARK  6 active torsions:
REMARK  status: ('A' for Active; 'I' for Inactive)
REMARK    1  A    between atoms: N_2  and  C_13
REMARK    2  A    between atoms: N_6  and  C_14
REMARK    3  A    between atoms: C_12  and  C_15
REMARK    4  A    between atoms: C_15  and  O_17
REMARK    5  A    between atoms: O_17  and  C_18
REMARK    6  A    between atoms: C_18  and  C_19
REMARK                            x       y       z     vdW  Elec       q    Type
REMARK                         _______ _______ _______ _____ _____    ______ ____
ROOT
ATOM      1  O   UNL     1       2.339   2.543   0.000  0.00  0.00    -0.246 OA
ATOM      2  C   UNL     1       3.637   1.791   0.000  0.00  0.00    +0.331 A 
ATOM      3  N   UNL     1       4.937   2.539   0.000  0.00  0.00    -0.292 N 
ATOM      4  H   UNL     1       4.939   4.039   0.000  0.00  0.00    +0.172 HD
ATOM      5  C   UNL     1       6.235   1.787   0.000  0.00  0.00    +0.146 A 
ATOM      6  C   UNL     1       6.233   0.287   0.000  0.00  0.00    +0.116 A 
ATOM      7  C   UNL     1       7.659  -0.178   0.000  0.00  0.00    +0.184 A 
ATOM     13  N   UNL     1       8.543   1.034   0.000  0.00  0.00    -0.162 NA
ATOM     14  C   UNL     1       4.933  -0.461   0.000  0.00  0.00    +0.268 A 
ATOM     15  O   UNL     1       4.931  -1.961   0.000  0.00  0.00    -0.267 OA
ATOM     16  N   UNL     1       7.663   2.249   0.000  0.00  0.00    -0.250 N 
ATOM     17  C   UNL     1       8.128   3.675   0.000  0.00  0.00    +0.174 C 
ATOM     18  N   UNL     1       3.635   0.291   0.000  0.00  0.00    -0.264 N 
ATOM     19  C   UNL     1       2.335  -0.458   0.000  0.00  0.00    +0.157 C 
ENDROOT
BRANCH   7   8
ATOM      8  C   UNL     1       8.121  -1.605   0.000  0.00  0.00    +0.360 C 
ATOM     12  O   UNL     1       7.116  -2.719   0.000  0.00  0.00    -0.243 OA
BRANCH   8   9
ATOM      9  O   UNL     1       9.588  -1.919   0.000  0.00  0.00    -0.460 OA
BRANCH   9  10
ATOM     10  C   UNL     1      10.593  -0.806   0.000  0.00  0.00    +0.229 C 
ATOM     11  C   UNL     1      10.131   0.621   0.000  0.00  0.00    +0.048 C 
ENDBRANCH   9  10
ENDBRANCH   8   9
ENDBRANCH   7   8
TORSDOF 3