REMARK  Name = 57890
REMARK  3 active torsions:
REMARK  status: ('A' for Active; 'I' for Inactive)
REMARK    1  A    between atoms: C_5  and  N_7
REMARK    2  A    between atoms: C_8  and  C_10
REMARK    3  A    between atoms: C_12  and  C_14
REMARK                            x       y       z     vdW  Elec       q    Type
REMARK                         _______ _______ _______ _____ _____    ______ ____
ROOT
ATOM      1  N   UNL     1       0.275   5.524   0.000  0.00  0.00    -0.220 NA
ATOM      2  C   UNL     1       1.574   4.774   0.000  0.00  0.00    +0.130 A 
ATOM      8  C   UNL     1       2.873   5.524   0.000  0.00  0.00    +0.087 A 
ATOM      9  C   UNL     1       2.873   7.024   0.000  0.00  0.00    +0.130 A 
ATOM     10  N   UNL     1       4.172   7.774   0.000  0.00  0.00    -0.270 N 
ATOM     11  H   UNL     1       4.172   8.759   0.000  0.00  0.00    +0.156 HD
ATOM     12  C   UNL     1       5.471   7.024   0.000  0.00  0.00    +0.215 C 
ATOM     13  C   UNL     1       5.471   5.524   0.000  0.00  0.00    +0.109 C 
ATOM     14  O   UNL     1       6.770   7.774   0.000  0.00  0.00    -0.276 OA
ATOM     15  N   UNL     1       1.573   7.774   0.000  0.00  0.00    -0.220 NA
ATOM     16  C   UNL     1       0.275   7.024   0.000  0.00  0.00    +0.225 A 
ENDROOT
BRANCH   2   3
ATOM      3  N   UNL     1       1.574   3.275   0.000  0.00  0.00    -0.270 N 
ATOM      4  H   UNL     1       2.426   2.782   0.000  0.00  0.00    +0.156 HD
ATOM      5  C   UNL     1       0.275   2.525   0.000  0.00  0.00    +0.215 C 
ATOM      6  C   UNL     1       0.275   1.025   0.000  0.00  0.00    +0.109 C 
ATOM      7  O   UNL     1      -1.025   3.275   0.000  0.00  0.00    -0.276 OA
ENDBRANCH   2   3
TORSDOF 1