REMARK  Name = 97920
REMARK  0 active torsions:
REMARK  status: ('A' for Active; 'I' for Inactive)
REMARK                            x       y       z     vdW  Elec       q    Type
REMARK                         _______ _______ _______ _____ _____    ______ ____
ROOT
ATOM      1  C   UNL     1      -0.750  -4.647   0.000  0.00  0.00    +0.009 A 
ATOM      2  C   UNL     1      -1.500  -3.348   0.000  0.00  0.00    -0.014 A 
ATOM      3  C   UNL     1      -3.000  -3.348   0.000  0.00  0.00    +0.024 A 
ATOM      4  C   UNL     1      -3.750  -4.647   0.000  0.00  0.00    +0.038 A 
ATOM      5  N   UNL     1      -5.250  -4.647   0.000  0.00  0.00    -0.323 N 
ATOM      6  H   UNL     1      -5.742  -5.500   0.000  0.00  0.00    +0.148 HD
ATOM      7  C   UNL     1      -6.000  -3.348   0.000  0.00  0.00    +0.097 C 
ATOM      8  N   UNL     1      -5.250  -2.049   0.000  0.00  0.00    -0.323 N 
ATOM      9  H   UNL     1      -5.742  -1.196   0.000  0.00  0.00    +0.148 HD
ATOM     10  C   UNL     1      -6.750  -4.647   0.000  0.00  0.00    +0.049 C 
ATOM     11  C   UNL     1      -8.250  -4.647   0.000  0.00  0.00    +0.049 C 
ATOM     12  C   UNL     1      -9.000  -3.348   0.000  0.00  0.00    +0.097 C 
ATOM     13  N   UNL     1      -9.750  -4.647   0.000  0.00  0.00    -0.323 N 
ATOM     14  H   UNL     1      -9.258  -5.500   0.000  0.00  0.00    +0.148 HD
ATOM     15  C   UNL     1     -11.250  -4.647   0.000  0.00  0.00    +0.038 A 
ATOM     16  C   UNL     1     -12.000  -5.946   0.000  0.00  0.00    +0.023 A 
ATOM     17  C   UNL     1     -13.500  -5.946   0.000  0.00  0.00    +0.002 A 
ATOM     18  C   UNL     1     -14.250  -4.647   0.000  0.00  0.00    +0.009 A 
ATOM     19  C   UNL     1     -13.500  -3.348   0.000  0.00  0.00    -0.014 A 
ATOM     20  C   UNL     1     -14.250  -2.049   0.000  0.00  0.00    +0.009 A 
ATOM     21  C   UNL     1     -13.500  -0.750   0.000  0.00  0.00    +0.002 A 
ATOM     22  C   UNL     1     -12.000  -0.750   0.000  0.00  0.00    +0.023 A 
ATOM     23  C   UNL     1     -11.250  -2.049   0.000  0.00  0.00    +0.038 A 
ATOM     24  C   UNL     1     -12.000  -3.348   0.000  0.00  0.00    +0.024 A 
ATOM     25  N   UNL     1      -9.750  -2.049   0.000  0.00  0.00    -0.323 N 
ATOM     26  H   UNL     1      -9.258  -1.196   0.000  0.00  0.00    +0.148 HD
ATOM     27  C   UNL     1      -8.250  -2.049   0.000  0.00  0.00    +0.049 C 
ATOM     28  C   UNL     1      -6.750  -2.049   0.000  0.00  0.00    +0.049 C 
ATOM     29  C   UNL     1      -3.000  -5.946   0.000  0.00  0.00    +0.023 A 
ATOM     30  C   UNL     1      -3.750  -2.049   0.000  0.00  0.00    +0.038 A 
ATOM     31  C   UNL     1      -3.000  -0.750   0.000  0.00  0.00    +0.023 A 
ATOM     32  C   UNL     1      -1.500  -0.750   0.000  0.00  0.00    +0.002 A 
ATOM     33  C   UNL     1      -0.750  -2.049   0.000  0.00  0.00    +0.009 A 
ATOM     34  C   UNL     1      -1.500  -5.946   0.000  0.00  0.00    +0.002 A 
ENDROOT
TORSDOF 0