REMARK  Name = 45153
REMARK  1 active torsions:
REMARK  status: ('A' for Active; 'I' for Inactive)
REMARK    1  A    between atoms: N_6  and  C_16
REMARK                            x       y       z     vdW  Elec       q    Type
REMARK                         _______ _______ _______ _____ _____    ______ ____
ROOT
ATOM      1  N   UNL     1      -8.176   4.914   0.000  0.00  0.00    -0.228 NA
ATOM      2  C   UNL     1      -6.877   5.664   0.000  0.00  0.00    +0.138 A 
ATOM      3  C   UNL     1      -5.578   4.914   0.000  0.00  0.00    +0.139 A 
ATOM      4  C   UNL     1      -5.578   3.414   0.000  0.00  0.00    +0.144 A 
ATOM      5  N   UNL     1      -4.152   2.950   0.000  0.00  0.00    -0.289 N 
ATOM     11  C   UNL     1      -3.270   4.164   0.000  0.00  0.00    +0.203 A 
ATOM     12  N   UNL     1      -6.877   2.664   0.000  0.00  0.00    -0.330 N 
ATOM     13  H   UNL     1      -6.877   1.164   0.000  0.00  0.00    +0.168 HD
ATOM     14  N   UNL     1      -4.152   5.377   0.000  0.00  0.00    -0.231 NA
ATOM     15  S   UNL     1      -6.877   7.164   0.000  0.00  0.00    -0.028 S 
ATOM     16  C   UNL     1      -8.176   3.414   0.000  0.00  0.00    +0.199 A 
ENDROOT
BRANCH   5   6
ATOM      6  C   UNL     1      -3.688   1.524   0.000  0.00  0.00    +0.222 C 
ATOM      7  C   UNL     1      -4.570   0.310   0.000  0.00  0.00    +0.057 C 
ATOM      8  C   UNL     1      -3.688  -0.903   0.000  0.00  0.00    +0.032 C 
ATOM      9  C   UNL     1      -2.262  -0.440   0.000  0.00  0.00    +0.162 C 
ATOM     10  O   UNL     1      -2.262   1.060   0.000  0.00  0.00    -0.357 OA
ENDBRANCH   5   6
TORSDOF 1