REMARK  Name = 660300
REMARK  3 active torsions:
REMARK  status: ('A' for Active; 'I' for Inactive)
REMARK    1  A    between atoms: N_4  and  C_9
REMARK    2  A    between atoms: C_10  and  N_11
REMARK    3  A    between atoms: C_13  and  N_16
REMARK                            x       y       z     vdW  Elec       q    Type
REMARK                         _______ _______ _______ _____ _____    ______ ____
ROOT
ATOM      6  C   UNL     1      -3.348   6.000   0.000  0.00  0.00    +0.065 A 
ATOM      7  C   UNL     1      -4.647   5.250   0.000  0.00  0.00    +0.032 A 
ATOM      8  C   UNL     1      -4.647   3.750   0.000  0.00  0.00    +0.086 A 
ATOM      9  C   UNL     1      -3.348   3.000   0.000  0.00  0.00    +0.275 A 
ATOM     13  C   UNL     1      -2.049   3.750   0.000  0.00  0.00    +0.108 A 
ATOM     14  C   UNL     1      -2.049   5.250   0.000  0.00  0.00    +0.053 A 
ENDROOT
BRANCH   6   5
ATOM      1  C   UNL     1      -3.348  10.500   0.000  0.00  0.00    +0.018 C 
ATOM      2  C   UNL     1      -2.049   9.750   0.000  0.00  0.00    +0.097 C 
ATOM      3  C   UNL     1      -2.049   8.250   0.000  0.00  0.00    +0.226 C 
ATOM      4  O   UNL     1      -0.750   7.500   0.000  0.00  0.00    -0.275 OA
ATOM      5  N   UNL     1      -3.348   7.500   0.000  0.00  0.00    -0.209 N 
ATOM     18  C   UNL     1      -4.647   8.250   0.000  0.00  0.00    +0.226 C 
ATOM     19  O   UNL     1      -5.946   7.500   0.000  0.00  0.00    -0.275 OA
ATOM     20  C   UNL     1      -4.647   9.750   0.000  0.00  0.00    +0.097 C 
ENDBRANCH   6   5
BRANCH   9  10
ATOM     10  N   UNL     1      -3.348   1.500   0.000  0.00  0.00    +0.080 N 
ATOM     11  O   UNL     1      -2.049   0.750   0.000  0.00  0.00    +0.041 OA
ATOM     12  O   UNL     1      -4.647   0.750   0.000  0.00  0.00    -0.576 OA
ENDBRANCH   9  10
BRANCH  14  15
ATOM     15  N   UNL     1      -0.750   6.000   0.000  0.00  0.00    -0.356 N 
ATOM     16  H   UNL     1      -0.750   6.984   0.000  0.00  0.00    +0.142 HD
ATOM     17  H   UNL     1       0.103   5.508   0.000  0.00  0.00    +0.142 HD
ENDBRANCH  14  15
TORSDOF 3