REMARK  Name = 66695
REMARK  2 active torsions:
REMARK  status: ('A' for Active; 'I' for Inactive)
REMARK    1  A    between atoms: C_15  and  O_22
REMARK    2  A    between atoms: O_22  and  C_23
REMARK                            x       y       z     vdW  Elec       q    Type
REMARK                         _______ _______ _______ _____ _____    ______ ____
ROOT
ATOM      1  O   UNL     1       7.245   6.750   0.000  0.00  0.00    -0.290 OA
ATOM      2  C   UNL     1       7.245   5.250   0.000  0.00  0.00    +0.189 C 
ATOM      3  C   UNL     1       5.946   4.500   0.000  0.00  0.00    +0.044 A 
ATOM      4  C   UNL     1       4.647   5.250   0.000  0.00  0.00    +0.059 A 
ATOM      5  C   UNL     1       3.348   4.500   0.000  0.00  0.00    +0.121 A 
ATOM      8  C   UNL     1       3.348   3.000   0.000  0.00  0.00    +0.047 A 
ATOM      9  C   UNL     1       4.647   2.250   0.000  0.00  0.00    +0.027 A 
ATOM     10  C   UNL     1       5.946   3.000   0.000  0.00  0.00    +0.039 A 
ATOM     11  N   UNL     1       7.245   2.250   0.000  0.00  0.00    -0.320 N 
ATOM     12  H   UNL     1       7.245   0.750   0.000  0.00  0.00    +0.148 HD
ATOM     13  C   UNL     1       8.544   3.000   0.000  0.00  0.00    +0.191 C 
ATOM     14  C   UNL     1       9.843   2.250   0.000  0.00  0.00    +0.257 C 
ATOM     15  N   UNL     1      11.142   3.000   0.000  0.00  0.00    -0.238 N 
ATOM     16  H   UNL     1      12.441   2.250   0.000  0.00  0.00    +0.159 HD
ATOM     17  C   UNL     1      11.142   4.500   0.000  0.00  0.00    +0.307 C 
ATOM     18  O   UNL     1      12.441   5.250   0.000  0.00  0.00    -0.252 OA
ATOM     19  N   UNL     1       9.843   5.250   0.000  0.00  0.00    -0.286 N 
ATOM     20  H   UNL     1       9.843   6.750   0.000  0.00  0.00    +0.151 HD
ATOM     21  O   UNL     1       9.843   0.750   0.000  0.00  0.00    -0.272 OA
ATOM     22 BR   UNL     1       8.544   1.500   0.000  0.00  0.00    -0.051 Br
ATOM     23  C   UNL     1       8.544   4.500   0.000  0.00  0.00    +0.189 C 
ENDROOT
BRANCH   5   6
ATOM      6  O   UNL     1       2.049   5.250   0.000  0.00  0.00    -0.495 OA
ATOM      7  C   UNL     1       0.750   4.500   0.000  0.00  0.00    +0.277 C 
ENDBRANCH   5   6
TORSDOF 1