REMARK  Name = 88600
REMARK  7 active torsions:
REMARK  status: ('A' for Active; 'I' for Inactive)
REMARK    1  A    between atoms: N_1  and  C_24
REMARK    2  A    between atoms: N_2  and  C_5
REMARK    3  A    between atoms: C_15  and  C_24
REMARK    4  A    between atoms: C_16  and  O_20
REMARK    5  A    between atoms: C_18  and  O_22
REMARK    6  A    between atoms: O_20  and  C_21
REMARK    7  A    between atoms: O_22  and  C_23
REMARK                            x       y       z     vdW  Elec       q    Type
REMARK                         _______ _______ _______ _____ _____    ______ ____
ROOT
ATOM      1  N   UNL     1      -0.275  10.025   0.000  0.00  0.00    -0.321 N 
ATOM     14  C   UNL     1       1.025   9.274   0.000  0.00  0.00    +0.124 C 
ATOM     15  C   UNL     1       2.324  10.025   0.000  0.00  0.00    +0.124 C 
ATOM     16  N   UNL     1       2.324  11.525   0.000  0.00  0.00    -0.326 N 
ATOM     17  C   UNL     1       1.025  12.275   0.000  0.00  0.00    +0.124 C 
ATOM     25  C   UNL     1      -0.275  11.525   0.000  0.00  0.00    +0.124 C 
ENDROOT
BRANCH  16  18
ATOM     18  C   UNL     1       3.623  12.275   0.000  0.00  0.00    +0.048 A 
ATOM     19  C   UNL     1       4.922  11.525   0.000  0.00  0.00    +0.062 A 
ATOM     20  C   UNL     1       6.221  12.275   0.000  0.00  0.00    +0.022 A 
ATOM     21  C   UNL     1       6.221  13.775   0.000  0.00  0.00    +0.002 A 
ATOM     22  C   UNL     1       4.922  14.525   0.000  0.00  0.00    +0.002 A 
ATOM     23 CL   UNL     1       4.922  10.025   0.000  0.00  0.00    -0.082 Cl
ATOM     24  C   UNL     1       3.623  13.775   0.000  0.00  0.00    +0.024 A 
ENDBRANCH  16  18
BRANCH   1   2
ATOM      2  C   UNL     1      -1.574   9.274   0.000  0.00  0.00    +0.082 C 
ATOM      3  S   UNL     1      -2.873  10.025   0.000  0.00  0.00    -0.035 S 
BRANCH   2   4
ATOM      4  C   UNL     1      -1.574   7.774   0.000  0.00  0.00    +0.007 A 
ATOM      5  C   UNL     1      -0.275   7.024   0.000  0.00  0.00    +0.014 A 
ATOM      6  C   UNL     1      -0.275   5.524   0.000  0.00  0.00    +0.050 A 
ATOM      7  C   UNL     1      -1.573   4.774   0.000  0.00  0.00    +0.162 A 
ATOM     10  C   UNL     1      -2.873   5.524   0.000  0.00  0.00    +0.162 A 
ATOM     13  C   UNL     1      -2.873   7.024   0.000  0.00  0.00    +0.059 A 
BRANCH   7   8
ATOM      8  O   UNL     1      -1.573   3.275   0.000  0.00  0.00    -0.491 OA
ATOM      9  C   UNL     1      -2.873   2.525   0.000  0.00  0.00    +0.277 C 
ENDBRANCH   7   8
BRANCH  10  11
ATOM     11  O   UNL     1      -4.172   4.774   0.000  0.00  0.00    -0.491 OA
ATOM     12  C   UNL     1      -4.172   3.275   0.000  0.00  0.00    +0.277 C 
ENDBRANCH  10  11
ENDBRANCH   2   4
ENDBRANCH   1   2
TORSDOF 5