REMARK  Name = 60239
REMARK  6 active torsions:
REMARK  status: ('A' for Active; 'I' for Inactive)
REMARK    1  A    between atoms: C_1  and  O_7
REMARK    2  A    between atoms: C_3  and  C_12
REMARK    3  A    between atoms: O_7  and  C_8
REMARK    4  A    between atoms: C_8  and  C_9
REMARK    5  A    between atoms: C_9  and  O_11
REMARK    6  A    between atoms: C_12  and  C_13
REMARK                            x       y       z     vdW  Elec       q    Type
REMARK                         _______ _______ _______ _____ _____    ______ ____
ROOT
ATOM      1  C   UNL     1      -6.221  -0.275   0.000  0.00  0.00    +0.125 A 
ATOM      8  C   UNL     1      -7.520  -1.025   0.000  0.00  0.00    +0.046 A 
ATOM      9  C   UNL     1      -7.520  -2.525   0.000  0.00  0.00    +0.004 A 
ATOM     10  C   UNL     1      -6.221  -3.275   0.000  0.00  0.00    +0.001 A 
ATOM     11  C   UNL     1      -4.922  -2.525   0.000  0.00  0.00    +0.007 A 
ATOM     12  C   UNL     1      -4.922  -1.025   0.000  0.00  0.00    -0.002 A 
ENDROOT
BRANCH   1   2
ATOM      2  O   UNL     1      -6.221   1.226   0.000  0.00  0.00    -0.481 OA
BRANCH   2   3
ATOM      3  C   UNL     1      -7.520   1.976   0.000  0.00  0.00    +0.349 C 
BRANCH   3   4
ATOM      4  C   UNL     1      -8.819   1.226   0.000  0.00  0.00    +0.343 C 
ATOM      7  O   UNL     1     -10.118   1.976   0.000  0.00  0.00    -0.247 OA
BRANCH   4   5
ATOM      5  O   UNL     1      -8.819  -0.275   0.000  0.00  0.00    -0.478 OA
ATOM      6  H   UNL     1      -9.630  -0.743   0.000  0.00  0.00    +0.295 HD
ENDBRANCH   4   5
ENDBRANCH   3   4
ENDBRANCH   2   3
ENDBRANCH   1   2
BRANCH  12  13
ATOM     13  C   UNL     1      -3.623  -0.275   0.000  0.00  0.00    +0.065 C 
BRANCH  13  14
ATOM     14  C   UNL     1      -2.324  -1.025   0.000  0.00  0.00    -0.030 C 
ATOM     15  C   UNL     1      -1.025  -0.275   0.000  0.00  0.00    +0.004 C 
ENDBRANCH  13  14
ENDBRANCH  12  13
TORSDOF 6