REMARK  Name = 80137
REMARK  7 active torsions:
REMARK  status: ('A' for Active; 'I' for Inactive)
REMARK    1  A    between atoms: C_12  and  O_24
REMARK    2  A    between atoms: C_13  and  O_30
REMARK    3  A    between atoms: C_14  and  C_21
REMARK    4  A    between atoms: C_18  and  O_28
REMARK    5  A    between atoms: C_21  and  O_23
REMARK    6  A    between atoms: O_28  and  C_29
REMARK    7  A    between atoms: O_30  and  C_31
REMARK                            x       y       z     vdW  Elec       q    Type
REMARK                         _______ _______ _______ _____ _____    ______ ____
ROOT
ATOM      1  C   UNL     1      -9.468   3.100   0.000  0.00  0.00    -0.016 A 
ATOM      2  C   UNL     1     -10.895   3.564   0.000  0.00  0.00    +0.003 A 
ATOM      3  C   UNL     1     -11.505   4.934   0.000  0.00  0.00    +0.014 A 
ATOM      4  C   UNL     1     -12.997   5.091   0.000  0.00  0.00    +0.046 A 
ATOM      5  C   UNL     1     -13.878   3.878   0.000  0.00  0.00    +0.122 A 
ATOM      8  C   UNL     1     -13.268   2.507   0.000  0.00  0.00    +0.071 A 
ATOM      9  C   UNL     1     -11.777   2.350   0.000  0.00  0.00    +0.050 A 
ATOM     10  N   UNL     1     -10.895   1.137   0.000  0.00  0.00    -0.356 N 
ATOM     11  H   UNL     1     -11.199   0.201   0.000  0.00  0.00    +0.166 HD
ATOM     12  C   UNL     1      -9.468   1.601   0.000  0.00  0.00    +0.038 A 
ATOM     13  C   UNL     1      -8.169   0.851   0.000  0.00  0.00    +0.104 C 
ATOM     14  C   UNL     1      -8.169  -0.649   0.000  0.00  0.00    +0.029 C 
ATOM     15  C   UNL     1      -6.870  -1.400   0.000  0.00  0.00    +0.003 C 
ATOM     16  C   UNL     1      -6.870  -2.900   0.000  0.00  0.00    +0.049 C 
ATOM     20  C   UNL     1      -5.571  -3.650   0.000  0.00  0.00    +0.152 C 
ATOM     23  C   UNL     1      -4.272  -2.900   0.000  0.00  0.00    +0.144 C 
ATOM     26  C   UNL     1      -4.272  -1.400   0.000  0.00  0.00    +0.039 C 
ATOM     27  C   UNL     1      -5.571  -0.649   0.000  0.00  0.00    +0.009 C 
ATOM     28  C   UNL     1      -5.571   0.851   0.000  0.00  0.00    +0.089 C 
ATOM     29  N   UNL     1      -6.870   1.601   0.000  0.00  0.00    -0.293 NA
ATOM     30  C   UNL     1      -6.870   3.100   0.000  0.00  0.00    +0.090 C 
ATOM     31  C   UNL     1      -8.169   3.850   0.000  0.00  0.00    +0.053 C 
ENDROOT
BRANCH   5   6
ATOM      6  O   UNL     1     -15.370   4.034   0.000  0.00  0.00    -0.495 OA
ATOM      7  C   UNL     1     -16.252   2.821   0.000  0.00  0.00    +0.277 C 
ENDBRANCH   5   6
BRANCH  20  21
ATOM     21  O   UNL     1      -5.571  -5.149   0.000  0.00  0.00    -0.377 OA
ATOM     22  C   UNL     1      -6.870  -5.899   0.000  0.00  0.00    +0.194 C 
ENDBRANCH  20  21
BRANCH  23  24
ATOM     24  O   UNL     1      -2.973  -3.650   0.000  0.00  0.00    -0.389 OA
ATOM     25  H   UNL     1      -2.973  -4.619   0.000  0.00  0.00    +0.210 HD
ENDBRANCH  23  24
BRANCH  16  17
ATOM     17  C   UNL     1      -8.169  -3.650   0.000  0.00  0.00    +0.162 C 
BRANCH  17  18
ATOM     18  O   UNL     1      -8.169  -5.149   0.000  0.00  0.00    -0.395 OA
ATOM     19  H   UNL     1      -9.009  -5.635   0.000  0.00  0.00    +0.209 HD
ENDBRANCH  17  18
ENDBRANCH  16  17
TORSDOF 5