REMARK  Name = 54645
REMARK  5 active torsions:
REMARK  status: ('A' for Active; 'I' for Inactive)
REMARK    1  A    between atoms: C_7  and  C_9
REMARK    2  A    between atoms: C_13  and  O_20
REMARK    3  A    between atoms: C_14  and  O_18
REMARK    4  A    between atoms: O_18  and  C_19
REMARK    5  A    between atoms: O_20  and  C_21
REMARK                            x       y       z     vdW  Elec       q    Type
REMARK                         _______ _______ _______ _____ _____    ______ ____
ROOT
ATOM      1  O   UNL     1      -5.946  -3.000   0.000  0.00  0.00    -0.451 OA
ATOM      2  C   UNL     1      -7.245  -3.750   0.000  0.00  0.00    +0.184 A 
ATOM      3  C   UNL     1      -8.544  -3.000   0.000  0.00  0.00    +0.205 A 
ATOM      6  C   UNL     1      -9.843  -3.750   0.000  0.00  0.00    +0.165 A 
ATOM      9  C   UNL     1      -9.843  -5.250   0.000  0.00  0.00    +0.050 A 
ATOM     10  C   UNL     1      -8.544  -6.000   0.000  0.00  0.00    +0.019 A 
ATOM     11  C   UNL     1      -7.245  -5.250   0.000  0.00  0.00    +0.068 A 
ATOM     12  C   UNL     1      -5.946  -6.000   0.000  0.00  0.00    +0.193 A 
ATOM     13  C   UNL     1      -4.647  -5.250   0.000  0.00  0.00    +0.098 A 
ATOM     14  O   UNL     1      -5.946  -7.500   0.000  0.00  0.00    -0.287 OA
ATOM     15  C   UNL     1      -4.647  -3.750   0.000  0.00  0.00    +0.141 A 
ENDROOT
BRANCH  15  16
ATOM     16  C   UNL     1      -3.348  -3.000   0.000  0.00  0.00    +0.035 A 
ATOM     17  C   UNL     1      -3.348  -1.500   0.000  0.00  0.00    +0.122 A 
ATOM     18  N   UNL     1      -2.049  -0.750   0.000  0.00  0.00    -0.263 NA
ATOM     19  C   UNL     1      -0.750  -1.500   0.000  0.00  0.00    +0.111 A 
ATOM     20  C   UNL     1      -0.750  -3.000   0.000  0.00  0.00    +0.020 A 
ATOM     21  C   UNL     1      -2.049  -3.750   0.000  0.00  0.00    +0.014 A 
ENDBRANCH  15  16
BRANCH   3   4
ATOM      4  O   UNL     1      -8.544  -1.500   0.000  0.00  0.00    -0.488 OA
ATOM      5  C   UNL     1      -9.843  -0.750   0.000  0.00  0.00    +0.277 C 
ENDBRANCH   3   4
BRANCH   6   7
ATOM      7  O   UNL     1     -11.142  -3.000   0.000  0.00  0.00    -0.491 OA
ATOM      8  C   UNL     1     -12.441  -3.750   0.000  0.00  0.00    +0.277 C 
ENDBRANCH   6   7
TORSDOF 3