REMARK  Name = 59814
REMARK  4 active torsions:
REMARK  status: ('A' for Active; 'I' for Inactive)
REMARK    1  A    between atoms: C_10  and  C_11
REMARK    2  A    between atoms: C_10  and  C_19
REMARK    3  A    between atoms: C_13  and  O_24
REMARK    4  A    between atoms: C_23  and  O_25
REMARK                            x       y       z     vdW  Elec       q    Type
REMARK                         _______ _______ _______ _____ _____    ______ ____
ROOT
ATOM      1  C   UNL     1       5.046   4.483   0.000  0.00  0.00    +0.002 A 
ATOM      2  C   UNL     1       5.046   2.983   0.000  0.00  0.00    +0.000 A 
ATOM      3  C   UNL     1       6.345   2.233   0.000  0.00  0.00    +0.007 A 
ATOM      4  C   UNL     1       7.644   2.983   0.000  0.00  0.00    -0.003 A 
ATOM      5  C   UNL     1       9.071   2.519   0.000  0.00  0.00    +0.124 C 
ATOM     22  C   UNL     1       9.952   3.733   0.000  0.00  0.00    +0.237 C 
ATOM     23  O   UNL     1      11.452   3.733   0.000  0.00  0.00    -0.274 OA
ATOM     24  N   UNL     1       9.071   4.946   0.000  0.00  0.00    -0.284 N 
ATOM     25  H   UNL     1       9.534   6.373   0.000  0.00  0.00    +0.155 HD
ATOM     26  C   UNL     1       7.644   4.483   0.000  0.00  0.00    +0.038 A 
ATOM     27  C   UNL     1       6.345   5.233   0.000  0.00  0.00    +0.023 A 
ENDROOT
BRANCH   5   6
ATOM      6  C   UNL     1       8.461   1.149   0.000  0.00  0.00    -0.024 A 
ATOM      7  C   UNL     1       9.342  -0.065   0.000  0.00  0.00    +0.009 A 
ATOM      8  C   UNL     1       8.732  -1.435   0.000  0.00  0.00    +0.046 A 
ATOM      9  C   UNL     1       7.240  -1.592   0.000  0.00  0.00    +0.117 A 
ATOM     12  C   UNL     1       6.359  -0.378   0.000  0.00  0.00    +0.046 A 
ATOM     13  C   UNL     1       6.969   0.992   0.000  0.00  0.00    +0.009 A 
BRANCH   9  10
ATOM     10  O   UNL     1       6.630  -2.962   0.000  0.00  0.00    -0.507 OA
ATOM     11  H   UNL     1       5.698  -3.060   0.000  0.00  0.00    +0.292 HD
ENDBRANCH   9  10
ENDBRANCH   5   6
BRANCH   5  14
ATOM     14  C   UNL     1      10.370   1.769   0.000  0.00  0.00    -0.024 A 
ATOM     15  C   UNL     1      11.669   2.519   0.000  0.00  0.00    +0.009 A 
ATOM     16  C   UNL     1      12.968   1.769   0.000  0.00  0.00    +0.046 A 
ATOM     17  C   UNL     1      12.968   0.269   0.000  0.00  0.00    +0.117 A 
ATOM     20  C   UNL     1      11.669  -0.481   0.000  0.00  0.00    +0.046 A 
ATOM     21  C   UNL     1      10.370   0.269   0.000  0.00  0.00    +0.009 A 
BRANCH  17  18
ATOM     18  O   UNL     1      14.267  -0.481   0.000  0.00  0.00    -0.507 OA
ATOM     19  H   UNL     1      14.267  -1.418   0.000  0.00  0.00    +0.292 HD
ENDBRANCH  17  18
ENDBRANCH   5  14
TORSDOF 4