REMARK  Name = 96021
REMARK  7 active torsions:
REMARK  status: ('A' for Active; 'I' for Inactive)
REMARK    1  A    between atoms: C_5  and  C_34
REMARK    2  A    between atoms: C_9  and  C_33
REMARK    3  A    between atoms: C_12  and  C_32
REMARK    4  A    between atoms: C_19  and  C_31
REMARK    5  A    between atoms: C_24  and  O_27
REMARK    6  A    between atoms: O_27  and  C_28
REMARK    7  A    between atoms: C_28  and  C_30
REMARK                            x       y       z     vdW  Elec       q    Type
REMARK                         _______ _______ _______ _____ _____    ______ ____
ROOT
ATOM      1  H   UNL     1      -3.970  -4.117   0.000  0.00  0.00    +0.125 HD
ATOM      2  N   UNL     1      -2.600  -4.728   0.000  0.00  0.00    -0.289 NA
ATOM      3  C   UNL     1      -2.443  -6.219   0.000  0.00  0.00    +0.124 C 
ATOM      4  C   UNL     1      -3.870  -5.756   0.000  0.00  0.00    +0.039 C 
ATOM      5  C   UNL     1      -4.333  -4.329   0.000  0.00  0.00    +0.012 C 
ATOM      6  C   UNL     1      -4.751  -6.969   0.000  0.00  0.00    +0.031 C 
ATOM      7  C   UNL     1      -6.178  -7.433   0.000  0.00  0.00    -0.023 C 
ATOM      8  C   UNL     1      -6.021  -5.941   0.000  0.00  0.00    +0.012 C 
ATOM      9  C   UNL     1      -6.178  -8.933   0.000  0.00  0.00    +0.001 C 
ATOM     10  C   UNL     1      -4.751  -9.396   0.000  0.00  0.00    +0.036 C 
ATOM     11  C   UNL     1      -7.477  -9.683   0.000  0.00  0.00    +0.000 C 
ATOM     12  C   UNL     1      -7.477 -11.183   0.000  0.00  0.00    +0.031 C 
ATOM     13  C   UNL     1      -8.776 -11.933   0.000  0.00  0.00    -0.027 C 
ATOM     14  C   UNL     1     -10.075 -11.183   0.000  0.00  0.00    -0.064 C 
ATOM     15  C   UNL     1     -11.374 -11.933   0.000  0.00  0.00    +0.075 C 
ATOM     16  C   UNL     1     -12.673 -11.183   0.000  0.00  0.00    +0.180 C 
ATOM     21  C   UNL     1     -12.673  -9.683   0.000  0.00  0.00    +0.046 C 
ATOM     22  C   UNL     1     -11.374  -8.933   0.000  0.00  0.00    +0.015 C 
ATOM     23  C   UNL     1     -10.075  -9.683   0.000  0.00  0.00    -0.008 C 
ATOM     24  C   UNL     1     -10.075  -8.183   0.000  0.00  0.00    +0.016 C 
ATOM     25  C   UNL     1      -8.776  -8.933   0.000  0.00  0.00    +0.003 C 
ATOM     26  C   UNL     1      -8.776  -7.433   0.000  0.00  0.00    +0.005 C 
ATOM     27  C   UNL     1      -7.477  -6.683   0.000  0.00  0.00    +0.007 C 
ATOM     28  C   UNL     1      -3.870  -8.183   0.000  0.00  0.00    +0.125 C 
ATOM     29  C   UNL     1      -1.073  -6.829   0.000  0.00  0.00    +0.052 C 
ATOM     30  C   UNL     1       0.141  -5.948   0.000  0.00  0.00    +0.008 C 
ATOM     31  C   UNL     1      -0.016  -4.456   0.000  0.00  0.00    -0.000 C 
ATOM     32  C   UNL     1       1.198  -3.574   0.000  0.00  0.00    +0.009 C 
ATOM     33  O   UNL     1      -2.443  -7.719   0.000  0.00  0.00    -0.355 OA
ATOM     34  C   UNL     1      -1.386  -3.846   0.000  0.00  0.00    +0.086 C 
ENDROOT
BRANCH  16  17
ATOM     17  O   UNL     1     -13.972 -11.933   0.000  0.00  0.00    -0.461 OA
BRANCH  17  18
ATOM     18  C   UNL     1     -15.271 -11.183   0.000  0.00  0.00    +0.304 C 
ATOM     19  C   UNL     1     -15.271  -9.683   0.000  0.00  0.00    +0.136 C 
ATOM     20  O   UNL     1     -16.570 -11.933   0.000  0.00  0.00    -0.251 OA
ENDBRANCH  17  18
ENDBRANCH  16  17
TORSDOF 2