REMARK  Name = 89429
REMARK  5 active torsions:
REMARK  status: ('A' for Active; 'I' for Inactive)
REMARK    1  A    between atoms: N_1  and  C_18
REMARK    2  A    between atoms: N_2  and  C_5
REMARK    3  A    between atoms: C_15  and  C_16
REMARK    4  A    between atoms: C_16  and  N_17
REMARK    5  A    between atoms: N_17  and  C_18
REMARK                            x       y       z     vdW  Elec       q    Type
REMARK                         _______ _______ _______ _____ _____    ______ ____
ROOT
ATOM      1  N   UNL     1       2.873   5.524   0.000  0.00  0.00    -0.310 N 
ATOM      9  C   UNL     1       4.172   4.774   0.000  0.00  0.00    +0.125 C 
ATOM     10  C   UNL     1       5.471   5.524   0.000  0.00  0.00    +0.124 C 
ATOM     11  N   UNL     1       5.471   7.024   0.000  0.00  0.00    -0.326 N 
ATOM     12  C   UNL     1       4.172   7.774   0.000  0.00  0.00    +0.124 C 
ATOM     20  C   UNL     1       2.873   7.024   0.000  0.00  0.00    +0.125 C 
ENDROOT
BRANCH  11  13
ATOM     13  C   UNL     1       6.770   7.774   0.000  0.00  0.00    +0.048 A 
ATOM     14  C   UNL     1       8.069   7.024   0.000  0.00  0.00    +0.062 A 
ATOM     15  C   UNL     1       9.368   7.774   0.000  0.00  0.00    +0.022 A 
ATOM     16  C   UNL     1       9.368   9.274   0.000  0.00  0.00    +0.002 A 
ATOM     17  C   UNL     1       8.069  10.025   0.000  0.00  0.00    +0.002 A 
ATOM     18 CL   UNL     1       8.069   5.524   0.000  0.00  0.00    -0.082 Cl
ATOM     19  C   UNL     1       6.770   9.274   0.000  0.00  0.00    +0.024 A 
ENDBRANCH  11  13
BRANCH   1   2
ATOM      2  C   UNL     1       1.574   4.774   0.000  0.00  0.00    +0.133 C 
ATOM      3  S   UNL     1       0.275   5.524   0.000  0.00  0.00    -0.019 S 
BRANCH   2   4
ATOM      4  N   UNL     1       1.574   3.275   0.000  0.00  0.00    -0.323 N 
ATOM      5  H   UNL     1       2.426   2.782   0.000  0.00  0.00    +0.148 HD
BRANCH   4   6
ATOM      6  C   UNL     1       0.275   2.525   0.000  0.00  0.00    +0.130 C 
BRANCH   6   7
ATOM      7  C   UNL     1      -1.025   3.275   0.000  0.00  0.00    -0.016 C 
ATOM      8  C   UNL     1      -1.025   4.774   0.000  0.00  0.00    +0.005 C 
ENDBRANCH   6   7
ENDBRANCH   4   6
ENDBRANCH   2   4
ENDBRANCH   1   2
TORSDOF 5