REMARK  Name = 79010
REMARK  3 active torsions:
REMARK  status: ('A' for Active; 'I' for Inactive)
REMARK    1  A    between atoms: C_5  and  C_10
REMARK    2  A    between atoms: C_8  and  C_11
REMARK    3  A    between atoms: C_9  and  C_12
REMARK                            x       y       z     vdW  Elec       q    Type
REMARK                         _______ _______ _______ _____ _____    ______ ____
ROOT
ATOM      1  N   UNL     1       6.221   0.275   0.000  0.00  0.00    -0.284 N 
ATOM      2  C   UNL     1       7.647  -0.189   0.000  0.00  0.00    +0.135 A 
ATOM      3  C   UNL     1       8.111  -1.616   0.000  0.00  0.00    +0.088 C 
ATOM      4  N   UNL     1       8.529   1.025   0.000  0.00  0.00    -0.134 NA
ATOM      5  N   UNL     1       7.647   2.238   0.000  0.00  0.00    -0.129 NA
ATOM      6  C   UNL     1       4.922  -0.475   0.000  0.00  0.00    +0.024 A 
ATOM      7  C   UNL     1       4.922  -1.976   0.000  0.00  0.00    +0.064 C 
ATOM      8  C   UNL     1       3.623   0.275   0.000  0.00  0.00    +0.025 A 
ATOM      9  C   UNL     1       3.623   1.775   0.000  0.00  0.00    -0.045 A 
ATOM     10  C   UNL     1       2.324   2.525   0.000  0.00  0.00    +0.044 C 
ATOM     11  C   UNL     1       4.922   2.525   0.000  0.00  0.00    +0.052 A 
ATOM     12  C   UNL     1       6.221   1.775   0.000  0.00  0.00    +0.162 A 
ENDROOT
TORSDOF 0