REMARK  Name = 60034
REMARK  7 active torsions:
REMARK  status: ('A' for Active; 'I' for Inactive)
REMARK    1  A    between atoms: C_5  and  C_15
REMARK    2  A    between atoms: C_7  and  C_13
REMARK    3  A    between atoms: C_8  and  C_14
REMARK    4  A    between atoms: C_12  and  C_16
REMARK    5  A    between atoms: C_15  and  C_16
REMARK    6  A    between atoms: C_15  and  O_17
REMARK    7  A    between atoms: C_16  and  O_18
REMARK                            x       y       z     vdW  Elec       q    Type
REMARK                         _______ _______ _______ _____ _____    ______ ____
ROOT
ATOM      3  C   UNL     1      -4.172  -4.774   0.000  0.00  0.00    +0.197 C 
ENDROOT
BRANCH   3   2
ATOM      1  N   UNL     1      -5.471  -7.024   0.000  0.00  0.00    -0.254 NA
ATOM      2  C   UNL     1      -5.471  -5.524   0.000  0.00  0.00    +0.073 A 
ATOM     16  C   UNL     1      -6.770  -4.774   0.000  0.00  0.00    +0.026 A 
ATOM     17  C   UNL     1      -8.069  -5.524   0.000  0.00  0.00    +0.004 A 
ATOM     18  C   UNL     1      -8.069  -7.024   0.000  0.00  0.00    +0.023 A 
ATOM     19  C   UNL     1      -6.770  -7.774   0.000  0.00  0.00    +0.039 A 
ATOM     20  C   UNL     1      -6.770  -9.274   0.000  0.00  0.00    +0.065 C 
ENDBRANCH   3   2
BRANCH   3   4
ATOM      4  O   UNL     1      -4.172  -3.275   0.000  0.00  0.00    -0.383 OA
ATOM      5  H   UNL     1      -3.332  -2.790   0.000  0.00  0.00    +0.210 HD
ENDBRANCH   3   4
BRANCH   3   6
ATOM      6  C   UNL     1      -2.873  -5.524   0.000  0.00  0.00    +0.197 C 
BRANCH   6   9
ATOM      9  C   UNL     1      -1.574  -4.774   0.000  0.00  0.00    +0.073 A 
ATOM     10  C   UNL     1      -1.574  -3.275   0.000  0.00  0.00    +0.026 A 
ATOM     11  C   UNL     1      -0.275  -2.525   0.000  0.00  0.00    +0.004 A 
ATOM     12  C   UNL     1       1.025  -3.275   0.000  0.00  0.00    +0.023 A 
ATOM     13  C   UNL     1       1.025  -4.774   0.000  0.00  0.00    +0.039 A 
ATOM     14  C   UNL     1       2.324  -5.524   0.000  0.00  0.00    +0.065 C 
ATOM     15  N   UNL     1      -0.275  -5.524   0.000  0.00  0.00    -0.254 NA
ENDBRANCH   6   9
BRANCH   6   7
ATOM      7  O   UNL     1      -2.873  -7.024   0.000  0.00  0.00    -0.383 OA
ATOM      8  H   UNL     1      -3.713  -7.510   0.000  0.00  0.00    +0.210 HD
ENDBRANCH   6   7
ENDBRANCH   3   6
TORSDOF 5