REMARK  Name = 98049
REMARK  6 active torsions:
REMARK  status: ('A' for Active; 'I' for Inactive)
REMARK    1  A    between atoms: N_2  and  C_10
REMARK    2  A    between atoms: N_3  and  C_11
REMARK    3  A    between atoms: C_7  and  N_12
REMARK    4  A    between atoms: C_13  and  O_15
REMARK    5  A    between atoms: O_15  and  C_16
REMARK    6  A    between atoms: C_16  and  C_17
REMARK                            x       y       z     vdW  Elec       q    Type
REMARK                         _______ _______ _______ _____ _____    ______ ____
ROOT
ATOM      1  O   UNL     1       0.750   2.250   0.000  0.00  0.00    -0.246 OA
ATOM      2  C   UNL     1       2.049   3.000   0.000  0.00  0.00    +0.333 A 
ATOM      3  N   UNL     1       3.348   2.250   0.000  0.00  0.00    -0.262 N 
ATOM      4  C   UNL     1       3.348   0.750   0.000  0.00  0.00    +0.157 C 
ATOM      5  C   UNL     1       4.647   3.000   0.000  0.00  0.00    +0.279 A 
ATOM      6  C   UNL     1       4.647   4.500   0.000  0.00  0.00    +0.137 A 
ATOM     14  C   UNL     1       3.348   5.250   0.000  0.00  0.00    +0.140 A 
ATOM     15 CL   UNL     1       3.348   6.750   0.000  0.00  0.00    -0.062 Cl
ATOM     16  O   UNL     1       5.946   2.250   0.000  0.00  0.00    -0.265 OA
ATOM     17  N   UNL     1       2.049   4.500   0.000  0.00  0.00    -0.286 N 
ATOM     18  C   UNL     1       0.750   5.250   0.000  0.00  0.00    +0.155 C 
ENDROOT
BRANCH   6   7
ATOM      7  N   UNL     1       5.946   5.250   0.000  0.00  0.00    -0.244 N 
ATOM      8  H   UNL     1       5.946   6.234   0.000  0.00  0.00    +0.158 HD
ATOM      9  C   UNL     1       7.245   4.500   0.000  0.00  0.00    +0.405 C 
ATOM     13  O   UNL     1       8.544   5.250   0.000  0.00  0.00    -0.226 OA
BRANCH   9  10
ATOM     10  O   UNL     1       7.245   3.000   0.000  0.00  0.00    -0.450 OA
BRANCH  10  11
ATOM     11  C   UNL     1       8.544   2.250   0.000  0.00  0.00    +0.230 C 
ATOM     12  C   UNL     1       8.544   0.750   0.000  0.00  0.00    +0.048 C 
ENDBRANCH  10  11
ENDBRANCH   9  10
ENDBRANCH   6   7
TORSDOF 3