REMARK  Name = 55845
REMARK  3 active torsions:
REMARK  status: ('A' for Active; 'I' for Inactive)
REMARK    1  A    between atoms: C_9  and  C_19
REMARK    2  A    between atoms: C_10  and  C_19
REMARK    3  A    between atoms: C_11  and  C_12
REMARK                            x       y       z     vdW  Elec       q    Type
REMARK                         _______ _______ _______ _____ _____    ______ ____
ROOT
ATOM      1  N   UNL     1      -2.644  -0.451   0.000  0.00  0.00    -0.180 NA
ATOM      2  C   UNL     1      -1.153  -0.294   0.000  0.00  0.00    +0.207 C 
ATOM     11  C   UNL     1      -0.542  -1.664   0.000  0.00  0.00    +0.076 C 
ATOM     12  C   UNL     1      -1.657  -2.668   0.000  0.00  0.00    +0.176 C 
ATOM     20  N   UNL     1      -2.956  -1.919   0.000  0.00  0.00    -0.191 NA
ENDROOT
BRANCH  11  13
ATOM     13  C   UNL     1       0.925  -1.976   0.000  0.00  0.00    -0.040 A 
ATOM     14  C   UNL     1       1.929  -0.860   0.000  0.00  0.00    +0.005 A 
ATOM     15  C   UNL     1       3.396  -1.172   0.000  0.00  0.00    +0.020 A 
ATOM     16  C   UNL     1       3.860  -2.598   0.000  0.00  0.00    +0.041 A 
ATOM     17  C   UNL     1       2.857  -3.713   0.000  0.00  0.00    +0.020 A 
ATOM     18 CL   UNL     1       5.327  -2.910   0.000  0.00  0.00    -0.084 Cl
ATOM     19  C   UNL     1       1.389  -3.402   0.000  0.00  0.00    +0.005 A 
ENDBRANCH  11  13
BRANCH   2   3
ATOM      3  C   UNL     1      -0.403   1.005   0.000  0.00  0.00    +0.190 C 
ATOM      4  O   UNL     1       1.097   1.006   0.000  0.00  0.00    -0.290 OA
BRANCH   3   5
ATOM      5  C   UNL     1      -1.154   2.304   0.000  0.00  0.00    +0.020 A 
ATOM      6  C   UNL     1      -0.404   3.603   0.000  0.00  0.00    +0.011 A 
ATOM      7  C   UNL     1      -1.155   4.902   0.000  0.00  0.00    +0.001 A 
ATOM      8  C   UNL     1      -2.655   4.902   0.000  0.00  0.00    +0.000 A 
ATOM      9  C   UNL     1      -3.404   3.602   0.000  0.00  0.00    +0.001 A 
ATOM     10  C   UNL     1      -2.654   2.303   0.000  0.00  0.00    +0.011 A 
ENDBRANCH   3   5
ENDBRANCH   2   3
TORSDOF 3