REMARK  Name = 81915
REMARK  4 active torsions:
REMARK  status: ('A' for Active; 'I' for Inactive)
REMARK    1  A    between atoms: C_6  and  N_21
REMARK    2  A    between atoms: C_12  and  N_19
REMARK    3  A    between atoms: S_14  and  O_16
REMARK    4  A    between atoms: S_14  and  O_18
REMARK                            x       y       z     vdW  Elec       q    Type
REMARK                         _______ _______ _______ _____ _____    ______ ____
ROOT
ATOM      1  S   UNL     1      -2.699   8.424   0.000  0.00  0.00    +0.205 S 
ATOM      4  O   UNL     1      -2.699   6.924   0.000  0.00  0.00    -0.118 OA
ATOM      7  O   UNL     1      -2.699   9.924   0.000  0.00  0.00    -0.118 OA
ENDROOT
BRANCH   1   2
ATOM      2  O   UNL     1      -1.199   8.424   0.000  0.00  0.00    -0.231 OA
ATOM      3  H   UNL     1      -0.714   7.584   0.000  0.00  0.00    +0.247 HD
ENDBRANCH   1   2
BRANCH   1   5
ATOM      5  O   UNL     1      -4.199   8.424   0.000  0.00  0.00    -0.231 OA
ATOM      6  H   UNL     1      -4.684   9.264   0.000  0.00  0.00    +0.247 HD
ENDBRANCH   1   5
TORSDOF 2