REMARK  Name = 647136
REMARK  4 active torsions:
REMARK  status: ('A' for Active; 'I' for Inactive)
REMARK    1  A    between atoms: C_5  and  O_17
REMARK    2  A    between atoms: C_12  and  C_15
REMARK    3  A    between atoms: C_13  and  C_16
REMARK    4  A    between atoms: O_17  and  C_18
REMARK                            x       y       z     vdW  Elec       q    Type
REMARK                         _______ _______ _______ _____ _____    ______ ____
ROOT
ATOM      1  C   UNL     1      -7.245  -1.500   0.000  0.00  0.00    +0.093 A 
ATOM      2  N   UNL     1      -5.946  -0.750   0.000  0.00  0.00    -0.243 NA
ATOM      3  C   UNL     1      -4.647  -1.500   0.000  0.00  0.00    +0.090 A 
ATOM      4  C   UNL     1      -3.348  -0.750   0.000  0.00  0.00    +0.033 A 
ATOM      5  C   UNL     1      -2.049  -1.500   0.000  0.00  0.00    -0.045 A 
ATOM      6  C   UNL     1      -0.750  -0.750   0.000  0.00  0.00    +0.044 C 
ATOM      7  C   UNL     1      -2.049  -3.000   0.000  0.00  0.00    -0.045 A 
ATOM      8  C   UNL     1      -0.750  -3.750   0.000  0.00  0.00    +0.044 C 
ATOM      9  C   UNL     1      -3.348  -3.750   0.000  0.00  0.00    +0.033 A 
ATOM     10  C   UNL     1      -4.647  -3.000   0.000  0.00  0.00    +0.090 A 
ATOM     11  N   UNL     1      -5.946  -3.750   0.000  0.00  0.00    -0.240 NA
ATOM     12  C   UNL     1      -7.245  -3.000   0.000  0.00  0.00    +0.131 A 
ATOM     13  C   UNL     1      -8.544  -3.750   0.000  0.00  0.00    +0.147 A 
ATOM     16  C   UNL     1      -9.843  -3.000   0.000  0.00  0.00    +0.048 A 
ATOM     17  C   UNL     1      -9.843  -1.500   0.000  0.00  0.00    +0.006 A 
ATOM     18  C   UNL     1      -8.544  -0.750   0.000  0.00  0.00    +0.030 A 
ENDROOT
BRANCH  13  14
ATOM     14  O   UNL     1      -8.544  -5.250   0.000  0.00  0.00    -0.493 OA
ATOM     15  C   UNL     1      -7.245  -6.000   0.000  0.00  0.00    +0.277 C 
ENDBRANCH  13  14
TORSDOF 1