REMARK  Name = 45545
REMARK  4 active torsions:
REMARK  status: ('A' for Active; 'I' for Inactive)
REMARK    1  A    between atoms: N_4  and  C_13
REMARK    2  A    between atoms: N_5  and  C_16
REMARK    3  A    between atoms: C_11  and  O_21
REMARK    4  A    between atoms: C_18  and  C_22
REMARK                            x       y       z     vdW  Elec       q    Type
REMARK                         _______ _______ _______ _____ _____    ______ ____
ROOT
ATOM      1  H   UNL     1       3.067  -2.313   0.000  0.00  0.00    +0.169 HD
ATOM      2  N   UNL     1       4.367  -1.563   0.000  0.00  0.00    -0.320 N 
ATOM      3  C   UNL     1       4.367  -0.063   0.000  0.00  0.00    +0.280 A 
ATOM      4  C   UNL     1       5.665   0.687   0.000  0.00  0.00    +0.192 A 
ATOM      5  C   UNL     1       6.965  -0.063   0.000  0.00  0.00    +0.158 A 
ATOM      8  C   UNL     1       6.965  -1.563   0.000  0.00  0.00    +0.042 A 
ATOM      9  C   UNL     1       8.264  -2.313   0.000  0.00  0.00    +0.013 A 
ATOM     10  C   UNL     1       8.264  -3.813   0.000  0.00  0.00    +0.001 A 
ATOM     11  C   UNL     1       6.965  -4.563   0.000  0.00  0.00    +0.002 A 
ATOM     12  C   UNL     1       5.665  -3.813   0.000  0.00  0.00    +0.026 A 
ATOM     26  O   UNL     1       3.067   0.687   0.000  0.00  0.00    -0.265 OA
ATOM     27  C   UNL     1       5.665  -2.313   0.000  0.00  0.00    +0.053 A 
ENDROOT
BRANCH   5   6
ATOM      6  O   UNL     1       8.264   0.687   0.000  0.00  0.00    -0.504 OA
ATOM      7  H   UNL     1       9.075   0.219   0.000  0.00  0.00    +0.292 HD
ENDBRANCH   5   6
BRANCH   4  13
ATOM     13  N   UNL     1       5.665   3.162   0.000  0.00  0.00    -0.140 NA
ATOM     14  N   UNL     1       6.965   3.912   0.000  0.00  0.00    -0.149 NA
BRANCH  14  15
ATOM     15  C   UNL     1       6.965   5.412   0.000  0.00  0.00    +0.086 A 
ATOM     16  C   UNL     1       8.264   6.162   0.000  0.00  0.00    +0.030 A 
ATOM     17  C   UNL     1       8.264   7.662   0.000  0.00  0.00    +0.015 A 
ATOM     18  C   UNL     1       6.965   8.412   0.000  0.00  0.00    +0.037 A 
ATOM     24  C   UNL     1       5.665   7.662   0.000  0.00  0.00    +0.015 A 
ATOM     25  C   UNL     1       5.665   6.162   0.000  0.00  0.00    +0.030 A 
BRANCH  18  19
ATOM     19  C   UNL     1       6.965   9.912   0.000  0.00  0.00    +0.242 C 
ATOM     20  N   UNL     1       8.264  10.662   0.000  0.00  0.00    -0.325 N 
ATOM     21  H   UNL     1       8.264  11.646   0.000  0.00  0.00    +0.145 HD
ATOM     22  H   UNL     1       9.116  10.170   0.000  0.00  0.00    +0.145 HD
ATOM     23  O   UNL     1       5.665  10.662   0.000  0.00  0.00    -0.270 OA
ENDBRANCH  18  19
ENDBRANCH  14  15
ENDBRANCH   4  13
TORSDOF 4