REMARK  Name = 55691
REMARK  3 active torsions:
REMARK  status: ('A' for Active; 'I' for Inactive)
REMARK    1  A    between atoms: N_4  and  C_16
REMARK    2  A    between atoms: C_10  and  C_13
REMARK    3  A    between atoms: C_18  and  C_19
REMARK                            x       y       z     vdW  Elec       q    Type
REMARK                         _______ _______ _______ _____ _____    ______ ____
ROOT
ATOM      7  C   UNL     1     -11.822  -7.126   0.000  0.00  0.00    +0.055 A 
ATOM      8  C   UNL     1     -12.826  -6.011   0.000  0.00  0.00    +0.075 A 
ATOM      9  S   UNL     1     -12.076  -4.712   0.000  0.00  0.00    -0.058 S 
ATOM     10  C   UNL     1     -10.609  -5.024   0.000  0.00  0.00    +0.174 A 
ATOM     11  N   UNL     1      -9.494  -4.021   0.000  0.00  0.00    -0.198 NA
ATOM     24  N   UNL     1     -10.452  -6.516   0.000  0.00  0.00    -0.333 N 
ATOM     25  H   UNL     1      -9.599  -7.008   0.000  0.00  0.00    +0.168 HD
ENDROOT
BRANCH   7   5
ATOM      1 BR   UNL     1     -13.070 -12.995   0.000  0.00  0.00    -0.050 Br
ATOM      2  C   UNL     1     -12.758 -11.528   0.000  0.00  0.00    +0.018 A 
ATOM      3  C   UNL     1     -13.873 -10.524   0.000  0.00  0.00    +0.016 A 
ATOM      4  C   UNL     1     -13.561  -9.057   0.000  0.00  0.00    +0.011 A 
ATOM      5  C   UNL     1     -12.134  -8.593   0.000  0.00  0.00    -0.001 A 
ATOM      6  C   UNL     1     -11.020  -9.597   0.000  0.00  0.00    +0.011 A 
ATOM     26  C   UNL     1     -11.331 -11.064   0.000  0.00  0.00    +0.016 A 
ENDBRANCH   7   5
BRANCH  11  12
ATOM     12  C   UNL     1      -8.068  -4.484   0.000  0.00  0.00    +0.195 A 
ATOM     13  N   UNL     1      -6.854  -3.602   0.000  0.00  0.00    -0.221 NA
ATOM     14  C   UNL     1      -5.640  -4.484   0.000  0.00  0.00    +0.080 A 
ATOM     15  C   UNL     1      -6.104  -5.911   0.000  0.00  0.00    +0.077 A 
ATOM     23  S   UNL     1      -7.604  -5.911   0.000  0.00  0.00    -0.056 S 
BRANCH  14  16
ATOM     16  C   UNL     1      -4.214  -4.021   0.000  0.00  0.00    +0.001 A 
ATOM     17  C   UNL     1      -3.099  -5.024   0.000  0.00  0.00    +0.011 A 
ATOM     18  C   UNL     1      -1.673  -4.561   0.000  0.00  0.00    +0.016 A 
ATOM     19  C   UNL     1      -1.361  -3.093   0.000  0.00  0.00    +0.018 A 
ATOM     20  C   UNL     1      -2.475  -2.090   0.000  0.00  0.00    +0.016 A 
ATOM     21 BR   UNL     1       0.066  -2.630   0.000  0.00  0.00    -0.050 Br
ATOM     22  C   UNL     1      -3.902  -2.553   0.000  0.00  0.00    +0.011 A 
ENDBRANCH  14  16
ENDBRANCH  11  12
TORSDOF 3