REMARK  Name = 93260
REMARK  9 active torsions:
REMARK  status: ('A' for Active; 'I' for Inactive)
REMARK    1  A    between atoms: N_1  and  C_2
REMARK    2  A    between atoms: N_1  and  C_4
REMARK    3  A    between atoms: N_1  and  C_6
REMARK    4  A    between atoms: C_2  and  C_3
REMARK    5  A    between atoms: C_4  and  C_5
REMARK    6  A    between atoms: C_6  and  C_7
REMARK    7  A    between atoms: C_7  and  O_8
REMARK    8  A    between atoms: O_8  and  C_9
REMARK    9  A    between atoms: C_9  and  C_10
REMARK                            x       y       z     vdW  Elec       q    Type
REMARK                         _______ _______ _______ _____ _____    ______ ____
ROOT
ATOM      2  C   UNL     1       1.226   3.623   0.000  0.00  0.00    +0.112 C 
ENDROOT
BRANCH   2   1
ATOM      1  N   UNL     1      -0.275   3.623   0.000  0.00  0.00    -0.301 NA
BRANCH   1   8
ATOM      8  C   UNL     1      -1.025   2.324   0.000  0.00  0.00    +0.081 C 
ATOM      9  C   UNL     1      -2.525   2.324   0.000  0.00  0.00    +0.020 C 
ENDBRANCH   1   8
BRANCH   1  10
ATOM     10  C   UNL     1      -1.025   4.922   0.000  0.00  0.00    +0.081 C 
ATOM     11  C   UNL     1      -2.525   4.922   0.000  0.00  0.00    +0.020 C 
ENDBRANCH   1  10
ENDBRANCH   2   1
BRANCH   2   3
ATOM      3  C   UNL     1       1.976   4.922   0.000  0.00  0.00    +0.175 C 
BRANCH   3   4
ATOM      4  O   UNL     1       1.226   6.221   0.000  0.00  0.00    -0.375 OA
BRANCH   4   5
ATOM      5  C   UNL     1       1.976   7.520   0.000  0.00  0.00    +0.186 C 
BRANCH   5   6
ATOM      6  C   UNL     1       1.226   8.819   0.000  0.00  0.00    -0.007 C 
ATOM      7  C   UNL     1      -0.275   8.819   0.000  0.00  0.00    +0.006 C 
ENDBRANCH   5   6
ENDBRANCH   4   5
ENDBRANCH   3   4
ENDBRANCH   2   3
TORSDOF 7