REMARK  Name = 60659
REMARK  4 active torsions:
REMARK  status: ('A' for Active; 'I' for Inactive)
REMARK    1  A    between atoms: C_4  and  C_24
REMARK    2  A    between atoms: C_7  and  C_11
REMARK    3  A    between atoms: C_9  and  C_18
REMARK    4  A    between atoms: C_10  and  C_12
REMARK                            x       y       z     vdW  Elec       q    Type
REMARK                         _______ _______ _______ _____ _____    ______ ____
ROOT
ATOM      1  N   UNL     1      -5.946  -6.000   0.000  0.00  0.00    -0.241 NA
ATOM      2  C   UNL     1      -7.245  -5.250   0.000  0.00  0.00    +0.090 A 
ATOM      3  C   UNL     1      -8.544  -6.000   0.000  0.00  0.00    +0.033 A 
ATOM      4  C   UNL     1      -9.843  -5.250   0.000  0.00  0.00    -0.045 A 
ATOM      5  C   UNL     1     -11.142  -6.000   0.000  0.00  0.00    +0.044 C 
ATOM      6  C   UNL     1      -9.843  -3.750   0.000  0.00  0.00    -0.045 A 
ATOM      7  C   UNL     1     -11.142  -3.000   0.000  0.00  0.00    +0.044 C 
ATOM      8  C   UNL     1      -8.544  -3.000   0.000  0.00  0.00    +0.033 A 
ATOM      9  C   UNL     1      -7.245  -3.750   0.000  0.00  0.00    +0.090 A 
ATOM     10  N   UNL     1      -5.946  -3.000   0.000  0.00  0.00    -0.241 NA
ATOM     11  C   UNL     1      -4.647  -3.750   0.000  0.00  0.00    +0.117 A 
ATOM     18  C   UNL     1      -4.647  -5.250   0.000  0.00  0.00    +0.117 A 
ENDROOT
BRANCH  11  12
ATOM     12  C   UNL     1      -3.348  -3.000   0.000  0.00  0.00    +0.091 A 
ATOM     13  N   UNL     1      -3.348  -1.500   0.000  0.00  0.00    -0.253 NA
ATOM     14  C   UNL     1      -2.049  -0.750   0.000  0.00  0.00    +0.111 A 
ATOM     15  C   UNL     1      -0.750  -1.500   0.000  0.00  0.00    +0.020 A 
ATOM     16  C   UNL     1      -0.750  -3.000   0.000  0.00  0.00    +0.004 A 
ATOM     17  C   UNL     1      -2.049  -3.750   0.000  0.00  0.00    +0.030 A 
ENDBRANCH  11  12
BRANCH  18  19
ATOM     19  C   UNL     1      -3.348  -6.000   0.000  0.00  0.00    +0.091 A 
ATOM     20  N   UNL     1      -2.049  -5.250   0.000  0.00  0.00    -0.253 NA
ATOM     21  C   UNL     1      -0.750  -6.000   0.000  0.00  0.00    +0.111 A 
ATOM     22  C   UNL     1      -0.750  -7.500   0.000  0.00  0.00    +0.020 A 
ATOM     23  C   UNL     1      -2.049  -8.250   0.000  0.00  0.00    +0.004 A 
ATOM     24  C   UNL     1      -3.348  -7.500   0.000  0.00  0.00    +0.030 A 
ENDBRANCH  18  19
TORSDOF 2