REMARK  Name = 46212
REMARK  8 active torsions:
REMARK  status: ('A' for Active; 'I' for Inactive)
REMARK    1  A    between atoms: C_1  and  C_13
REMARK    2  A    between atoms: C_3  and  N_17
REMARK    3  A    between atoms: C_6  and  C_14
REMARK    4  A    between atoms: C_8  and  N_20
REMARK    5  A    between atoms: C_11  and  O_21
REMARK    6  A    between atoms: C_14  and  C_15
REMARK    7  A    between atoms: C_14  and  C_16
REMARK    8  A    between atoms: O_21  and  C_22
REMARK                            x       y       z     vdW  Elec       q    Type
REMARK                         _______ _______ _______ _____ _____    ______ ____
ROOT
ATOM     11  N   UNL     1       4.647  -7.500   0.000  0.00  0.00    -0.269 N 
ATOM     12  H   UNL     1       5.500  -7.992   0.000  0.00  0.00    +0.156 HD
ATOM     13  C   UNL     1       4.647  -6.000   0.000  0.00  0.00    +0.308 C 
ATOM     14  N   UNL     1       3.348  -5.250   0.000  0.00  0.00    -0.266 N 
ATOM     15  H   UNL     1       2.456  -5.666   0.000  0.00  0.00    +0.156 HD
ATOM     24  O   UNL     1       5.946  -5.250   0.000  0.00  0.00    -0.252 OA
ENDROOT
BRANCH  11  10
ATOM      1  C   UNL     1       2.049  -7.500   0.000  0.00  0.00    -0.029 A 
ATOM      2  C   UNL     1       2.049  -6.000   0.000  0.00  0.00    +0.045 C 
ATOM      3  C   UNL     1       0.750  -8.250   0.000  0.00  0.00    +0.005 A 
ATOM      4  C   UNL     1       0.750  -9.750   0.000  0.00  0.00    +0.004 A 
ATOM      5  C   UNL     1       2.049 -10.500   0.000  0.00  0.00    -0.043 A 
ATOM      9  C   UNL     1       3.348  -9.750   0.000  0.00  0.00    +0.027 A 
ATOM     10  C   UNL     1       3.348  -8.250   0.000  0.00  0.00    +0.038 A 
BRANCH   5   6
ATOM      6  C   UNL     1       2.049 -12.000   0.000  0.00  0.00    +0.013 C 
ATOM      7  C   UNL     1       3.348 -12.750   0.000  0.00  0.00    +0.012 C 
ATOM      8  C   UNL     1       0.750 -12.750   0.000  0.00  0.00    +0.012 C 
ENDBRANCH   5   6
ENDBRANCH  11  10
BRANCH  14  16
ATOM     16  C   UNL     1       3.609  -3.773   0.000  0.00  0.00    +0.077 A 
ATOM     17  C   UNL     1       2.459  -2.809   0.000  0.00  0.00    +0.141 A 
ATOM     20  C   UNL     1       2.720  -1.331   0.000  0.00  0.00    +0.047 A 
ATOM     21  C   UNL     1       4.130  -0.818   0.000  0.00  0.00    +0.004 A 
ATOM     22  C   UNL     1       5.279  -1.783   0.000  0.00  0.00    +0.002 A 
ATOM     23  C   UNL     1       5.018  -3.260   0.000  0.00  0.00    +0.027 A 
BRANCH  17  18
ATOM     18  O   UNL     1       1.050  -3.322   0.000  0.00  0.00    -0.493 OA
ATOM     19  C   UNL     1       0.789  -4.799   0.000  0.00  0.00    +0.277 C 
ENDBRANCH  17  18
ENDBRANCH  14  16
TORSDOF 4