REMARK  Name = 63311
REMARK  7 active torsions:
REMARK  status: ('A' for Active; 'I' for Inactive)
REMARK    1  A    between atoms: C_2  and  C_9
REMARK    2  A    between atoms: C_5  and  C_7
REMARK    3  A    between atoms: C_7  and  C_8
REMARK    4  A    between atoms: C_10  and  C_11
REMARK    5  A    between atoms: C_10  and  C_13
REMARK    6  A    between atoms: C_11  and  C_12
REMARK    7  A    between atoms: C_13  and  C_14
REMARK                            x       y       z     vdW  Elec       q    Type
REMARK                         _______ _______ _______ _____ _____    ______ ____
ROOT
ATOM      1  N   UNL     1      -7.245  -0.750   0.000  0.00  0.00    -0.255 NA
ATOM      2  C   UNL     1      -8.544  -1.500   0.000  0.00  0.00    +0.115 A 
ATOM      3  C   UNL     1      -8.544  -3.000   0.000  0.00  0.00    -0.029 A 
ATOM      6  C   UNL     1      -7.245  -3.750   0.000  0.00  0.00    +0.007 A 
ATOM      7  C   UNL     1      -5.946  -3.000   0.000  0.00  0.00    +0.028 A 
ATOM      8  C   UNL     1      -5.946  -1.500   0.000  0.00  0.00    +0.064 A 
ENDROOT
BRANCH   3   4
ATOM      4  C   UNL     1      -9.843  -3.750   0.000  0.00  0.00    +0.033 C 
ATOM      5  C   UNL     1     -11.142  -3.000   0.000  0.00  0.00    +0.009 C 
ENDBRANCH   3   4
BRANCH   8   9
ATOM      9  C   UNL     1      -4.647  -0.750   0.000  0.00  0.00    +0.027 C 
ATOM     10  C   UNL     1      -3.348  -1.500   0.000  0.00  0.00    -0.068 C 
BRANCH  10  11
ATOM     11  C   UNL     1      -3.348  -3.000   0.000  0.00  0.00    +0.027 C 
ATOM     12  C   UNL     1      -2.049  -3.750   0.000  0.00  0.00    +0.008 C 
ENDBRANCH  10  11
BRANCH  10  13
ATOM     13  C   UNL     1      -2.049  -0.750   0.000  0.00  0.00    +0.027 C 
ATOM     14  C   UNL     1      -0.750  -1.500   0.000  0.00  0.00    +0.008 C 
ENDBRANCH  10  13
ENDBRANCH   8   9
TORSDOF 4