REMARK  Name = 48231
REMARK  5 active torsions:
REMARK  status: ('A' for Active; 'I' for Inactive)
REMARK    1  A    between atoms: C_6  and  C_7
REMARK    2  A    between atoms: C_7  and  C_8
REMARK    3  A    between atoms: C_7  and  C_10
REMARK    4  A    between atoms: C_8  and  C_9
REMARK    5  A    between atoms: C_10  and  C_11
REMARK                            x       y       z     vdW  Elec       q    Type
REMARK                         _______ _______ _______ _____ _____    ______ ____
ROOT
ATOM      1  H   UNL     1      -4.446  -2.233   0.000  0.00  0.00    +0.166 HD
ATOM      2  N   UNL     1      -4.446  -3.733   0.000  0.00  0.00    -0.348 N 
ATOM      3  C   UNL     1      -3.232  -4.615   0.000  0.00  0.00    +0.110 A 
ATOM      9  N   UNL     1      -3.696  -6.041   0.000  0.00  0.00    -0.241 NA
ATOM     10  C   UNL     1      -5.196  -6.041   0.000  0.00  0.00    +0.130 A 
ATOM     11  C   UNL     1      -5.659  -4.615   0.000  0.00  0.00    +0.104 A 
ENDROOT
BRANCH   3   4
ATOM      4  C   UNL     1      -1.806  -4.151   0.000  0.00  0.00    +0.054 C 
BRANCH   4   5
ATOM      5  C   UNL     1      -1.494  -2.684   0.000  0.00  0.00    +0.008 C 
ATOM      6  C   UNL     1      -0.067  -2.220   0.000  0.00  0.00    +0.004 C 
ENDBRANCH   4   5
BRANCH   4   7
ATOM      7  C   UNL     1      -0.691  -5.155   0.000  0.00  0.00    +0.008 C 
ATOM      8  C   UNL     1       0.736  -4.691   0.000  0.00  0.00    +0.004 C 
ENDBRANCH   4   7
ENDBRANCH   3   4
TORSDOF 3