REMARK  Name = 49252
REMARK  6 active torsions:
REMARK  status: ('A' for Active; 'I' for Inactive)
REMARK    1  A    between atoms: C_2  and  C_3
REMARK    2  A    between atoms: C_3  and  N_4
REMARK    3  A    between atoms: N_4  and  C_5
REMARK    4  A    between atoms: C_5  and  N_7
REMARK    5  A    between atoms: N_7  and  C_8
REMARK    6  A    between atoms: C_8  and  C_9
REMARK                            x       y       z     vdW  Elec       q    Type
REMARK                         _______ _______ _______ _____ _____    ______ ____
ROOT
ATOM      6  C   UNL     1       3.009   5.201   0.000  0.00  0.00    +0.131 C 
ATOM     12  S   UNL     1       4.509   5.201   0.000  0.00  0.00    -0.019 S 
ENDROOT
BRANCH   6   4
ATOM      4  N   UNL     1       2.259   6.500   0.000  0.00  0.00    -0.323 N 
ATOM      5  H   UNL     1       2.751   7.353   0.000  0.00  0.00    +0.148 HD
BRANCH   4   3
ATOM      3  C   UNL     1       0.759   6.500   0.000  0.00  0.00    +0.130 C 
BRANCH   3   2
ATOM      1  C   UNL     1      -1.491   5.201   0.000  0.00  0.00    +0.005 C 
ATOM      2  C   UNL     1       0.009   5.201   0.000  0.00  0.00    -0.016 C 
ENDBRANCH   3   2
ENDBRANCH   4   3
ENDBRANCH   6   4
BRANCH   6   7
ATOM      7  N   UNL     1       2.259   3.902   0.000  0.00  0.00    -0.323 N 
ATOM      8  H   UNL     1       2.751   3.050   0.000  0.00  0.00    +0.148 HD
BRANCH   7   9
ATOM      9  C   UNL     1       0.759   3.902   0.000  0.00  0.00    +0.130 C 
BRANCH   9  10
ATOM     10  C   UNL     1       0.009   2.603   0.000  0.00  0.00    -0.016 C 
ATOM     11  C   UNL     1       0.759   1.304   0.000  0.00  0.00    +0.005 C 
ENDBRANCH   9  10
ENDBRANCH   7   9
ENDBRANCH   6   7
TORSDOF 6