REMARK  Name = 55172
REMARK  11 active torsions:
REMARK  status: ('A' for Active; 'I' for Inactive)
REMARK    1  A    between atoms: N_2  and  C_18
REMARK    2  A    between atoms: C_6  and  C_10
REMARK    3  A    between atoms: C_7  and  C_8
REMARK    4  A    between atoms: C_8  and  O_12
REMARK    5  A    between atoms: C_10  and  O_15
REMARK    6  A    between atoms: O_12  and  C_13
REMARK    7  A    between atoms: C_13  and  C_14
REMARK    8  A    between atoms: O_15  and  C_16
REMARK    9  A    between atoms: C_16  and  C_17
REMARK   10  A    between atoms: C_18  and  C_19
REMARK   11  A    between atoms: C_18  and  C_20
REMARK                            x       y       z     vdW  Elec       q    Type
REMARK                         _______ _______ _______ _____ _____    ______ ____
ROOT
ATOM      1  O   UNL     1       6.152   8.612   0.000  0.00  0.00    -0.267 OA
ATOM      2  C   UNL     1       5.995   7.120   0.000  0.00  0.00    +0.284 C 
ATOM      3  C   UNL     1       7.110   6.117   0.000  0.00  0.00    +0.233 C 
ATOM      4  C   UNL     1       6.500   4.746   0.000  0.00  0.00    +0.204 C 
ATOM     10  C   UNL     1       5.008   4.903   0.000  0.00  0.00    +0.207 C 
ATOM     16  O   UNL     1       8.577   6.428   0.000  0.00  0.00    -0.286 OA
ATOM     17  N   UNL     1       4.696   6.370   0.000  0.00  0.00    -0.278 N 
ENDROOT
BRANCH  17  18
ATOM     18  C   UNL     1       3.325   6.980   0.000  0.00  0.00    +0.071 C 
ATOM     19  C   UNL     1       2.112   6.099   0.000  0.00  0.00    +0.028 C 
ATOM     20  C   UNL     1       3.169   8.472   0.000  0.00  0.00    +0.028 C 
ENDBRANCH  17  18
BRANCH   4   5
ATOM      5  C   UNL     1       7.250   3.447   0.000  0.00  0.00    +0.320 C 
ATOM      9  O   UNL     1       6.500   2.148   0.000  0.00  0.00    -0.250 OA
BRANCH   5   6
ATOM      6  O   UNL     1       8.749   3.447   0.000  0.00  0.00    -0.464 OA
BRANCH   6   7
ATOM      7  C   UNL     1       9.499   4.746   0.000  0.00  0.00    +0.229 C 
ATOM      8  C   UNL     1      10.999   4.746   0.000  0.00  0.00    +0.048 C 
ENDBRANCH   6   7
ENDBRANCH   5   6
ENDBRANCH   4   5
BRANCH  10  11
ATOM     11  C   UNL     1       4.004   3.788   0.000  0.00  0.00    +0.329 C 
ATOM     15  O   UNL     1       4.468   2.362   0.000  0.00  0.00    -0.249 OA
BRANCH  11  12
ATOM     12  O   UNL     1       2.537   4.100   0.000  0.00  0.00    -0.464 OA
BRANCH  12  13
ATOM     13  C   UNL     1       1.533   2.986   0.000  0.00  0.00    +0.229 C 
ATOM     14  C   UNL     1       0.066   3.297   0.000  0.00  0.00    +0.048 C 
ENDBRANCH  12  13
ENDBRANCH  11  12
ENDBRANCH  10  11
TORSDOF 7