REMARK  Name = 70931
REMARK  9 active torsions:
REMARK  status: ('A' for Active; 'I' for Inactive)
REMARK    1  A    between atoms: C_3  and  C_30
REMARK    2  A    between atoms: C_3  and  C_32
REMARK    3  A    between atoms: C_8  and  C_31
REMARK    4  A    between atoms: C_9  and  C_28
REMARK    5  A    between atoms: C_13  and  C_29
REMARK    6  A    between atoms: C_14  and  C_27
REMARK    7  A    between atoms: C_22  and  O_25
REMARK    8  A    between atoms: C_24  and  C_26
REMARK    9  A    between atoms: C_32  and  O_34
REMARK                            x       y       z     vdW  Elec       q    Type
REMARK                         _______ _______ _______ _____ _____    ______ ____
ROOT
ATOM      1  O   UNL     1      -1.025   6.274   0.000  0.00  0.00    -0.284 OA
ATOM      2  C   UNL     1       0.275   5.524   0.000  0.00  0.00    +0.221 C 
ATOM      3  C   UNL     1       0.275   4.024   0.000  0.00  0.00    +0.167 C 
ATOM      6  C   UNL     1       1.574   3.275   0.000  0.00  0.00    +0.002 C 
ATOM      7  C   UNL     1       1.573   1.775   0.000  0.00  0.00    +0.048 C 
ATOM      8  C   UNL     1       2.873   4.024   0.000  0.00  0.00    -0.014 C 
ATOM      9  C   UNL     1       4.172   3.275   0.000  0.00  0.00    +0.008 C 
ATOM     10  C   UNL     1       5.471   4.024   0.000  0.00  0.00    +0.001 C 
ATOM     11  C   UNL     1       5.471   5.524   0.000  0.00  0.00    -0.053 C 
ATOM     12  C   UNL     1       4.172   6.274   0.000  0.00  0.00    +0.015 C 
ATOM     13  C   UNL     1       4.172   4.774   0.000  0.00  0.00    +0.021 C 
ATOM     14  C   UNL     1       4.172   7.774   0.000  0.00  0.00    +0.016 C 
ATOM     15  C   UNL     1       5.471   8.524   0.000  0.00  0.00    +0.009 C 
ATOM     16  C   UNL     1       6.770   7.774   0.000  0.00  0.00    -0.020 C 
ATOM     17  C   UNL     1       6.770   9.274   0.000  0.00  0.00    +0.012 C 
ATOM     18  C   UNL     1       8.069   8.524   0.000  0.00  0.00    +0.003 C 
ATOM     19  C   UNL     1       9.368   7.774   0.000  0.00  0.00    -0.029 C 
ATOM     20  C   UNL     1       9.368   9.274   0.000  0.00  0.00    +0.011 C 
ATOM     21  C   UNL     1       9.368   6.274   0.000  0.00  0.00    +0.008 C 
ATOM     22  C   UNL     1       8.069   5.524   0.000  0.00  0.00    +0.012 C 
ATOM     23  C   UNL     1      10.667   8.524   0.000  0.00  0.00    +0.008 C 
ATOM     24  C   UNL     1      10.667  10.025   0.000  0.00  0.00    +0.018 C 
ATOM     25  C   UNL     1       9.368  10.775   0.000  0.00  0.00    +0.065 C 
ATOM     30  C   UNL     1       8.404  11.924   0.000  0.00  0.00    +0.023 C 
ATOM     31  C   UNL     1       8.069  10.025   0.000  0.00  0.00    +0.022 C 
ATOM     32  C   UNL     1       6.770   6.274   0.000  0.00  0.00    -0.004 C 
ATOM     33  C   UNL     1       6.770   4.774   0.000  0.00  0.00    +0.016 C 
ATOM     34  C   UNL     1       2.873   5.524   0.000  0.00  0.00    -0.026 C 
ATOM     35  C   UNL     1       1.574   6.274   0.000  0.00  0.00    +0.059 C 
ENDROOT
BRANCH   3   4
ATOM      4  O   UNL     1      -1.025   3.275   0.000  0.00  0.00    -0.503 OA
ATOM      5  H   UNL     1      -1.836   3.743   0.000  0.00  0.00    +0.292 HD
ENDBRANCH   3   4
BRANCH  25  26
ATOM     26  C   UNL     1      10.332  11.924   0.000  0.00  0.00    +0.311 C 
ATOM     29  O   UNL     1      11.809  11.663   0.000  0.00  0.00    -0.250 OA
BRANCH  26  27
ATOM     27  O   UNL     1       9.819  13.333   0.000  0.00  0.00    -0.480 OA
ATOM     28  H   UNL     1      10.421  14.051   0.000  0.00  0.00    +0.295 HD
ENDBRANCH  26  27
ENDBRANCH  25  26
TORSDOF 3