REMARK  Name = 91356
REMARK  8 active torsions:
REMARK  status: ('A' for Active; 'I' for Inactive)
REMARK    1  A    between atoms: N_2  and  C_24
REMARK    2  A    between atoms: N_3  and  C_5
REMARK    3  A    between atoms: C_9  and  C_25
REMARK    4  A    between atoms: C_15  and  O_20
REMARK    5  A    between atoms: O_20  and  C_21
REMARK    6  A    between atoms: C_21  and  C_22
REMARK    7  A    between atoms: C_22  and  O_23
REMARK    8  A    between atoms: C_22  and  C_24
REMARK                            x       y       z     vdW  Elec       q    Type
REMARK                         _______ _______ _______ _____ _____    ______ ____
ROOT
ATOM      9  C   UNL     1       6.770   7.774   0.000  0.00  0.00    +0.119 C 
ENDROOT
BRANCH   9  10
ATOM     10  N   UNL     1       8.069   8.524   0.000  0.00  0.00    -0.297 NA
ATOM     11  C   UNL     1       9.368   7.774   0.000  0.00  0.00    +0.103 C 
ATOM     12  C   UNL     1      10.667   8.524   0.000  0.00  0.00    +0.120 C 
ATOM     13  N   UNL     1      10.667  10.025   0.000  0.00  0.00    -0.327 N 
ATOM     14  C   UNL     1       9.368  10.775   0.000  0.00  0.00    +0.120 C 
ATOM     22  C   UNL     1       8.069  10.025   0.000  0.00  0.00    +0.103 C 
BRANCH  13  15
ATOM     15  C   UNL     1      11.966  10.775   0.000  0.00  0.00    +0.030 A 
ATOM     16  C   UNL     1      13.265  10.025   0.000  0.00  0.00    +0.026 A 
ATOM     17  C   UNL     1      14.564  10.775   0.000  0.00  0.00    -0.049 A 
ATOM     18  C   UNL     1      15.863  10.025   0.000  0.00  0.00    +0.044 C 
ATOM     19  C   UNL     1      14.564  12.275   0.000  0.00  0.00    +0.003 A 
ATOM     20  C   UNL     1      13.265  13.025   0.000  0.00  0.00    +0.002 A 
ATOM     21  C   UNL     1      11.966  12.275   0.000  0.00  0.00    +0.023 A 
ENDBRANCH  13  15
ENDBRANCH   9  10
BRANCH   9   8
ATOM      8  C   UNL     1       5.471   8.524   0.000  0.00  0.00    +0.166 C 
BRANCH   8  23
ATOM     23  O   UNL     1       5.471  10.025   0.000  0.00  0.00    -0.387 OA
ATOM     24  H   UNL     1       6.311  10.509   0.000  0.00  0.00    +0.210 HD
ENDBRANCH   8  23
BRANCH   8   7
ATOM      7  C   UNL     1       4.172   7.774   0.000  0.00  0.00    +0.261 C 
BRANCH   7   6
ATOM      6  O   UNL     1       4.172   6.274   0.000  0.00  0.00    -0.489 OA
BRANCH   6   5
ATOM      1 CL   UNL     1      -1.025   3.275   0.000  0.00  0.00    -0.084 Cl
ATOM      2  C   UNL     1       0.275   4.024   0.000  0.00  0.00    +0.041 A 
ATOM      3  C   UNL     1       1.574   3.275   0.000  0.00  0.00    +0.023 A 
ATOM      4  C   UNL     1       2.873   4.024   0.000  0.00  0.00    +0.047 A 
ATOM      5  C   UNL     1       2.873   5.524   0.000  0.00  0.00    +0.121 A 
ATOM     25  C   UNL     1       1.574   6.274   0.000  0.00  0.00    +0.047 A 
ATOM     26  C   UNL     1       0.275   5.524   0.000  0.00  0.00    +0.023 A 
ENDBRANCH   6   5
ENDBRANCH   7   6
ENDBRANCH   8   7
ENDBRANCH   9   8
TORSDOF 7