REMARK  Name = 81120
REMARK  0 active torsions:
REMARK  status: ('A' for Active; 'I' for Inactive)
REMARK                            x       y       z     vdW  Elec       q    Type
REMARK                         _______ _______ _______ _____ _____    ______ ____
ROOT
ATOM      1  S   UNL     1      -4.647  -3.750   0.000  0.00  0.00    -0.086 S 
ATOM      2  C   UNL     1      -5.946  -3.000   0.000  0.00  0.00    +0.034 A 
ATOM      3  C   UNL     1      -7.245  -3.750   0.000  0.00  0.00    +0.025 A 
ATOM      4  C   UNL     1      -8.544  -3.000   0.000  0.00  0.00    -0.017 A 
ATOM      5  C   UNL     1      -9.843  -3.750   0.000  0.00  0.00    +0.008 A 
ATOM      6  C   UNL     1     -11.142  -3.000   0.000  0.00  0.00    +0.001 A 
ATOM      7  C   UNL     1     -11.142  -1.500   0.000  0.00  0.00    +0.001 A 
ATOM      8  C   UNL     1      -9.843  -0.750   0.000  0.00  0.00    +0.008 A 
ATOM      9  C   UNL     1      -8.544  -1.500   0.000  0.00  0.00    -0.016 A 
ATOM     10  C   UNL     1      -7.245  -0.750   0.000  0.00  0.00    +0.033 A 
ATOM     11  C   UNL     1      -5.946  -1.500   0.000  0.00  0.00    +0.046 A 
ATOM     12  N   UNL     1      -4.647  -0.750   0.000  0.00  0.00    -0.313 N 
ATOM     13  H   UNL     1      -4.647   0.234   0.000  0.00  0.00    +0.152 HD
ATOM     14  C   UNL     1      -3.348  -1.500   0.000  0.00  0.00    +0.045 A 
ATOM     15  C   UNL     1      -2.049  -0.750   0.000  0.00  0.00    +0.024 A 
ATOM     16  C   UNL     1      -0.750  -1.500   0.000  0.00  0.00    +0.002 A 
ATOM     17  C   UNL     1      -0.750  -3.000   0.000  0.00  0.00    +0.001 A 
ATOM     18  C   UNL     1      -2.049  -3.750   0.000  0.00  0.00    +0.017 A 
ATOM     19  C   UNL     1      -3.348  -3.000   0.000  0.00  0.00    +0.034 A 
ENDROOT
TORSDOF 0