REMARK  Name = 85179
REMARK  5 active torsions:
REMARK  status: ('A' for Active; 'I' for Inactive)
REMARK    1  A    between atoms: C_4  and  N_11
REMARK    2  A    between atoms: C_8  and  C_9
REMARK    3  A    between atoms: C_8  and  N_11
REMARK    4  A    between atoms: N_11  and  C_12
REMARK    5  A    between atoms: C_12  and  C_13
REMARK                            x       y       z     vdW  Elec       q    Type
REMARK                         _______ _______ _______ _____ _____    ______ ____
ROOT
ATOM      1 CL   UNL     1      -4.172  -9.274   0.000  0.00  0.00    -0.083 Cl
ATOM      2  C   UNL     1      -4.172  -7.774   0.000  0.00  0.00    +0.043 A 
ATOM      3  C   UNL     1      -5.471  -7.024   0.000  0.00  0.00    +0.020 A 
ATOM      4  C   UNL     1      -5.471  -5.524   0.000  0.00  0.00    +0.003 A 
ATOM      5  C   UNL     1      -4.172  -4.774   0.000  0.00  0.00    +0.023 A 
ATOM      6  C   UNL     1      -2.873  -5.524   0.000  0.00  0.00    +0.031 A 
ATOM     14  C   UNL     1      -2.873  -7.024   0.000  0.00  0.00    +0.043 A 
ENDROOT
BRANCH   6   7
ATOM      7  N   UNL     1      -1.573  -4.774   0.000  0.00  0.00    -0.325 N 
BRANCH   7   8
ATOM      8  C   UNL     1      -0.275  -5.524   0.000  0.00  0.00    +0.138 C 
BRANCH   8   9
ATOM      9  C   UNL     1       1.025  -4.774   0.000  0.00  0.00    +0.232 C 
ATOM     10  F   UNL     1       2.324  -5.524   0.000  0.00  0.00    -0.247 F 
ENDBRANCH   8   9
ENDBRANCH   7   8
BRANCH   7  11
ATOM     11  C   UNL     1      -1.574  -3.275   0.000  0.00  0.00    +0.138 C 
BRANCH  11  12
ATOM     12  C   UNL     1      -2.873  -2.525   0.000  0.00  0.00    +0.232 C 
ATOM     13  F   UNL     1      -4.172  -3.275   0.000  0.00  0.00    -0.247 F 
ENDBRANCH  11  12
ENDBRANCH   7  11
ENDBRANCH   6   7
TORSDOF 5