REMARK  Name = 638080
REMARK  6 active torsions:
REMARK  status: ('A' for Active; 'I' for Inactive)
REMARK    1  A    between atoms: C_2  and  O_3
REMARK    2  A    between atoms: C_4  and  C_8
REMARK    3  A    between atoms: C_6  and  O_16
REMARK    4  A    between atoms: C_7  and  O_15
REMARK    5  A    between atoms: C_9  and  C_10
REMARK    6  A    between atoms: C_9  and  C_12
REMARK                            x       y       z     vdW  Elec       q    Type
REMARK                         _______ _______ _______ _____ _____    ______ ____
ROOT
ATOM      1  C   UNL     1      -7.245  -2.250   0.000  0.00  0.00    +0.057 A 
ATOM      2  C   UNL     1      -5.946  -3.000   0.000  0.00  0.00    -0.017 A 
ATOM     12  C   UNL     1      -5.946  -4.500   0.000  0.00  0.00    +0.057 A 
ATOM     13  C   UNL     1      -7.245  -5.250   0.000  0.00  0.00    +0.163 A 
ATOM     16  C   UNL     1      -8.544  -4.500   0.000  0.00  0.00    +0.201 A 
ATOM     19  C   UNL     1      -8.544  -3.000   0.000  0.00  0.00    +0.163 A 
ENDROOT
BRANCH   2   3
ATOM      3  C   UNL     1      -4.647  -2.250   0.000  0.00  0.00    +0.032 C 
ATOM      4  C   UNL     1      -3.348  -3.000   0.000  0.00  0.00    +0.114 C 
BRANCH   4   5
ATOM      5  C   UNL     1      -2.049  -2.250   0.000  0.00  0.00    +0.252 C 
ATOM      6  N   UNL     1      -0.750  -3.000   0.000  0.00  0.00    -0.325 N 
ATOM      7  H   UNL     1       0.103  -2.508   0.000  0.00  0.00    +0.145 HD
ATOM      8  H   UNL     1      -0.750  -3.984   0.000  0.00  0.00    +0.145 HD
ATOM      9  O   UNL     1      -2.049  -0.750   0.000  0.00  0.00    -0.270 OA
ENDBRANCH   4   5
BRANCH   4  10
ATOM     10  C   UNL     1      -3.348  -4.500   0.000  0.00  0.00    +0.104 C 
ATOM     11  N   UNL     1      -3.348  -6.000   0.000  0.00  0.00    -0.191 NA
ENDBRANCH   4  10
ENDBRANCH   2   3
BRANCH  13  14
ATOM     14  O   UNL     1      -7.245  -6.750   0.000  0.00  0.00    -0.503 OA
ATOM     15  H   UNL     1      -8.057  -7.218   0.000  0.00  0.00    +0.292 HD
ENDBRANCH  13  14
BRANCH  16  17
ATOM     17  O   UNL     1      -9.843  -5.250   0.000  0.00  0.00    -0.501 OA
ATOM     18  H   UNL     1     -10.655  -4.781   0.000  0.00  0.00    +0.292 HD
ENDBRANCH  16  17
BRANCH  19  20
ATOM     20  O   UNL     1      -9.843  -2.250   0.000  0.00  0.00    -0.503 OA
ATOM     21  H   UNL     1      -9.843  -1.313   0.000  0.00  0.00    +0.292 HD
ENDBRANCH  19  20
TORSDOF 6