REMARK  Name = 97865
REMARK  4 active torsions:
REMARK  status: ('A' for Active; 'I' for Inactive)
REMARK    1  A    between atoms: O_1  and  C_7
REMARK    2  A    between atoms: O_1  and  C_19
REMARK    3  A    between atoms: C_11  and  C_15
REMARK    4  A    between atoms: C_12  and  C_19
REMARK                            x       y       z     vdW  Elec       q    Type
REMARK                         _______ _______ _______ _____ _____    ______ ____
ROOT
ATOM     10  C   UNL     1      -2.049   6.000   0.000  0.00  0.00    +0.121 A 
ATOM     11  C   UNL     1      -2.049   4.500   0.000  0.00  0.00    +0.058 A 
ATOM     12  C   UNL     1      -3.348   3.750   0.000  0.00  0.00    +0.058 A 
ATOM     17  C   UNL     1      -4.647   4.500   0.000  0.00  0.00    +0.012 A 
ATOM     18  C   UNL     1      -4.647   6.000   0.000  0.00  0.00    +0.004 A 
ATOM     19  C   UNL     1      -3.348   6.750   0.000  0.00  0.00    +0.045 A 
ENDROOT
BRANCH  12  13
ATOM     13  C   UNL     1      -3.348   2.250   0.000  0.00  0.00    +0.418 C 
ATOM     14  F   UNL     1      -1.848   2.250   0.000  0.00  0.00    -0.166 F 
ATOM     15  F   UNL     1      -3.348   0.750   0.000  0.00  0.00    -0.166 F 
ATOM     16  F   UNL     1      -4.848   2.250   0.000  0.00  0.00    -0.166 F 
ENDBRANCH  12  13
BRANCH  10   1
ATOM      1  O   UNL     1      -0.750   6.750   0.000  0.00  0.00    -0.488 OA
BRANCH   1   2
ATOM      2  C   UNL     1      -0.750   8.250   0.000  0.00  0.00    +0.275 C 
BRANCH   2   3
ATOM      3  C   UNL     1      -2.049   9.000   0.000  0.00  0.00    +0.230 C 
ATOM      4  C   UNL     1      -2.206  10.492   0.000  0.00  0.00    +0.153 C 
ATOM      5  N   UNL     1      -3.673  10.804   0.000  0.00  0.00    -0.306 N 
ATOM      6  H   UNL     1      -4.283  12.174   0.000  0.00  0.00    +0.150 HD
ATOM      7  C   UNL     1      -4.423   9.505   0.000  0.00  0.00    +0.229 C 
ATOM      8  S   UNL     1      -5.915   9.348   0.000  0.00  0.00    +0.006 S 
ATOM      9  O   UNL     1      -3.419   8.390   0.000  0.00  0.00    -0.466 OA
ENDBRANCH   2   3
ENDBRANCH   1   2
ENDBRANCH  10   1
TORSDOF 4