REMARK  Name = 59984
REMARK  4 active torsions:
REMARK  status: ('A' for Active; 'I' for Inactive)
REMARK    1  A    between atoms: N_1  and  C_12
REMARK    2  A    between atoms: C_6  and  C_16
REMARK    3  A    between atoms: C_9  and  N_17
REMARK    4  A    between atoms: C_13  and  C_15
REMARK                            x       y       z     vdW  Elec       q    Type
REMARK                         _______ _______ _______ _____ _____    ______ ____
ROOT
ATOM      7  C   UNL     1       7.245   3.000   0.000  0.00  0.00    +0.071 C 
ATOM      8  C   UNL     1       8.544   3.750   0.000  0.00  0.00    +0.051 C 
ENDROOT
BRANCH   7   6
ATOM      1  N   UNL     1       2.049   1.500   0.000  0.00  0.00    -0.302 NA
ATOM      2  C   UNL     1       0.750   0.750   0.000  0.00  0.00    +0.105 C 
ATOM      3  C   UNL     1       3.348   0.750   0.000  0.00  0.00    +0.103 C 
ATOM      4  C   UNL     1       4.647   1.500   0.000  0.00  0.00    +0.123 C 
ATOM      5  N   UNL     1       4.647   3.000   0.000  0.00  0.00    -0.296 N 
ATOM      6  C   UNL     1       5.946   3.750   0.000  0.00  0.00    +0.240 C 
ATOM     17  O   UNL     1       5.946   5.250   0.000  0.00  0.00    -0.271 OA
ATOM     18  C   UNL     1       3.348   3.750   0.000  0.00  0.00    +0.123 C 
ATOM     19  C   UNL     1       2.049   3.000   0.000  0.00  0.00    +0.103 C 
ENDBRANCH   7   6
BRANCH   8   9
ATOM      9  C   UNL     1       9.843   3.000   0.000  0.00  0.00    +0.135 A 
ATOM     10  C   UNL     1      10.000   1.508   0.000  0.00  0.00    +0.056 A 
ATOM     11  C   UNL     1      11.467   1.196   0.000  0.00  0.00    +0.132 A 
ATOM     12  C   UNL     1      12.217   2.495   0.000  0.00  0.00    +0.438 A 
ATOM     16  O   UNL     1      11.214   3.610   0.000  0.00  0.00    -0.401 OA
BRANCH  12  13
ATOM     13  N   UNL     1      13.709   2.652   0.000  0.00  0.00    +0.119 N 
ATOM     14  O   UNL     1      14.319   4.023   0.000  0.00  0.00    +0.045 OA
ATOM     15  O   UNL     1      14.591   1.439   0.000  0.00  0.00    -0.573 OA
ENDBRANCH  12  13
ENDBRANCH   8   9
TORSDOF 3