REMARK  Name = 5784
REMARK  3 active torsions:
REMARK  status: ('A' for Active; 'I' for Inactive)
REMARK    1  A    between atoms: C_1  and  C_5
REMARK    2  A    between atoms: C_3  and  N_11
REMARK    3  A    between atoms: C_3  and  N_12
REMARK                            x       y       z     vdW  Elec       q    Type
REMARK                         _______ _______ _______ _____ _____    ______ ____
ROOT
ATOM      1  C   UNL     1      -3.750  -2.049   0.000  0.00  0.00    +0.250 C 
ATOM      2  N   UNL     1      -3.000  -3.348   0.000  0.00  0.00    -0.264 N 
ATOM      3  H   UNL     1      -3.492  -4.201   0.000  0.00  0.00    +0.157 HD
ATOM     15  O   UNL     1      -3.000  -0.750   0.000  0.00  0.00    -0.270 OA
ENDROOT
BRANCH   1   9
ATOM      9  C   UNL     1      -5.250  -2.049   0.000  0.00  0.00    +0.037 A 
ATOM     10  C   UNL     1      -6.000  -0.750   0.000  0.00  0.00    +0.013 A 
ATOM     11  C   UNL     1      -7.500  -0.750   0.000  0.00  0.00    +0.001 A 
ATOM     12  C   UNL     1      -8.250  -2.049   0.000  0.00  0.00    +0.000 A 
ATOM     13  C   UNL     1      -7.500  -3.348   0.000  0.00  0.00    +0.001 A 
ATOM     14  C   UNL     1      -6.000  -3.348   0.000  0.00  0.00    +0.013 A 
ENDBRANCH   1   9
BRANCH   2   4
ATOM      4  C   UNL     1      -1.500  -3.348   0.000  0.00  0.00    +0.134 C 
ATOM      8  S   UNL     1      -0.750  -2.049   0.000  0.00  0.00    -0.019 S 
BRANCH   4   5
ATOM      5  N   UNL     1      -0.750  -4.647   0.000  0.00  0.00    -0.340 N 
ATOM      6  H   UNL     1       0.234  -4.647   0.000  0.00  0.00    +0.144 HD
ATOM      7  H   UNL     1      -1.242  -5.500   0.000  0.00  0.00    +0.144 HD
ENDBRANCH   4   5
ENDBRANCH   2   4
TORSDOF 3