REMARK  Name = 50648
REMARK  4 active torsions:
REMARK  status: ('A' for Active; 'I' for Inactive)
REMARK    1  A    between atoms: C_1  and  O_17
REMARK    2  A    between atoms: C_2  and  C_18
REMARK    3  A    between atoms: C_12  and  N_20
REMARK    4  A    between atoms: C_16  and  N_21
REMARK                            x       y       z     vdW  Elec       q    Type
REMARK                         _______ _______ _______ _____ _____    ______ ____
ROOT
ATOM     13  C   UNL     1      -8.544  -3.000   0.000  0.00  0.00    +0.252 C 
ATOM     14  N   UNL     1      -7.245  -3.750   0.000  0.00  0.00    -0.281 N 
ATOM     15  H   UNL     1      -7.245  -4.734   0.000  0.00  0.00    +0.155 HD
ATOM     25  O   UNL     1      -8.544  -1.500   0.000  0.00  0.00    -0.270 OA
ENDROOT
BRANCH  13  12
ATOM      1  C   UNL     1     -11.142  -3.000   0.000  0.00  0.00    +0.137 A 
ATOM      4  C   UNL     1     -12.441  -3.750   0.000  0.00  0.00    +0.024 A 
ATOM      5  C   UNL     1     -13.740  -3.000   0.000  0.00  0.00    +0.012 A 
ATOM      6  C   UNL     1     -15.039  -3.750   0.000  0.00  0.00    +0.001 A 
ATOM      7  C   UNL     1     -15.039  -5.250   0.000  0.00  0.00    +0.001 A 
ATOM      8  C   UNL     1     -13.740  -6.000   0.000  0.00  0.00    +0.008 A 
ATOM      9  C   UNL     1     -12.441  -5.250   0.000  0.00  0.00    -0.014 A 
ATOM     10  C   UNL     1     -11.142  -6.000   0.000  0.00  0.00    +0.009 A 
ATOM     11  C   UNL     1      -9.843  -5.250   0.000  0.00  0.00    +0.017 A 
ATOM     12  C   UNL     1      -9.843  -3.750   0.000  0.00  0.00    +0.079 A 
BRANCH   1   2
ATOM      2  O   UNL     1     -11.142  -1.500   0.000  0.00  0.00    -0.505 OA
ATOM      3  H   UNL     1     -10.331  -1.031   0.000  0.00  0.00    +0.292 HD
ENDBRANCH   1   2
ENDBRANCH  13  12
BRANCH  14  16
ATOM     16  C   UNL     1      -5.946  -3.000   0.000  0.00  0.00    +0.040 A 
ATOM     17  C   UNL     1      -4.647  -3.750   0.000  0.00  0.00    +0.107 A 
ATOM     18  C   UNL     1      -3.348  -3.000   0.000  0.00  0.00    +0.275 A 
ATOM     22  C   UNL     1      -3.348  -1.500   0.000  0.00  0.00    +0.084 A 
ATOM     23  C   UNL     1      -4.647  -0.750   0.000  0.00  0.00    +0.008 A 
ATOM     24  C   UNL     1      -5.946  -1.500   0.000  0.00  0.00    +0.024 A 
BRANCH  18  19
ATOM     19  N   UNL     1      -2.049  -3.750   0.000  0.00  0.00    +0.080 N 
ATOM     20  O   UNL     1      -0.750  -3.000   0.000  0.00  0.00    +0.041 OA
ATOM     21  O   UNL     1      -2.049  -5.250   0.000  0.00  0.00    -0.576 OA
ENDBRANCH  18  19
ENDBRANCH  14  16
TORSDOF 4