REMARK  Name = 638432
REMARK  6 active torsions:
REMARK  status: ('A' for Active; 'I' for Inactive)
REMARK    1  A    between atoms: N_15  and  C_23
REMARK    2  A    between atoms: C_23  and  C_24
REMARK    3  A    between atoms: C_24  and  C_25
REMARK    4  A    between atoms: C_25  and  N_26
REMARK    5  A    between atoms: N_26  and  C_27
REMARK    6  A    between atoms: N_26  and  C_28
REMARK                            x       y       z     vdW  Elec       q    Type
REMARK                         _______ _______ _______ _____ _____    ______ ____
ROOT
ATOM      1 CL   UNL     1       1.156   0.633   0.000  0.00  0.00    -0.145 Cl
ATOM      2  H   UNL     1       2.486   0.633   0.000  0.00  0.00    +0.145 HD
ENDROOT
TORSDOF 0