REMARK  Name = 87010
REMARK  2 active torsions:
REMARK  status: ('A' for Active; 'I' for Inactive)
REMARK    1  A    between atoms: N_3  and  C_6
REMARK    2  A    between atoms: C_14  and  C_20
REMARK                            x       y       z     vdW  Elec       q    Type
REMARK                         _______ _______ _______ _____ _____    ______ ____
ROOT
ATOM      6  C   UNL     1       5.571   2.150   0.000  0.00  0.00    +0.248 C 
ATOM      7  O   UNL     1       5.571   3.650   0.000  0.00  0.00    -0.270 OA
ATOM      8  N   UNL     1       6.870   1.400   0.000  0.00  0.00    -0.294 N 
ATOM      9  C   UNL     1       6.870  -0.101   0.000  0.00  0.00    +0.127 C 
ATOM     10  C   UNL     1       8.169  -0.851   0.000  0.00  0.00    +0.124 C 
ATOM     11  N   UNL     1       9.468  -0.101   0.000  0.00  0.00    -0.326 N 
ATOM     12  C   UNL     1       9.468   1.400   0.000  0.00  0.00    +0.124 C 
ATOM     20  C   UNL     1       8.169   2.150   0.000  0.00  0.00    +0.127 C 
ENDROOT
BRANCH  11  13
ATOM     13  C   UNL     1      10.767  -0.851   0.000  0.00  0.00    +0.048 A 
ATOM     14  C   UNL     1      10.767  -2.350   0.000  0.00  0.00    +0.062 A 
ATOM     15  C   UNL     1      12.066  -3.100   0.000  0.00  0.00    +0.022 A 
ATOM     16  C   UNL     1      13.365  -2.350   0.000  0.00  0.00    +0.002 A 
ATOM     17  C   UNL     1      13.365  -0.850   0.000  0.00  0.00    +0.002 A 
ATOM     18 CL   UNL     1       9.468  -3.100   0.000  0.00  0.00    -0.082 Cl
ATOM     19  C   UNL     1      12.066  -0.100   0.000  0.00  0.00    +0.024 A 
ENDBRANCH  11  13
BRANCH   6   5
ATOM      1  N   UNL     1       1.674   1.400   0.000  0.00  0.00    -0.263 NA
ATOM      2  C   UNL     1       1.674  -0.101   0.000  0.00  0.00    +0.111 A 
ATOM      3  C   UNL     1       2.973  -0.851   0.000  0.00  0.00    +0.020 A 
ATOM      4  C   UNL     1       4.272  -0.101   0.000  0.00  0.00    +0.016 A 
ATOM      5  C   UNL     1       4.272   1.400   0.000  0.00  0.00    +0.055 A 
ATOM     21  C   UNL     1       2.973   2.150   0.000  0.00  0.00    +0.123 A 
ENDBRANCH   6   5
TORSDOF 2