REMARK  Name = 5476
REMARK  2 active torsions:
REMARK  status: ('A' for Active; 'I' for Inactive)
REMARK    1  A    between atoms: N_3  and  S_24
REMARK    2  A    between atoms: C_10  and  S_24
REMARK                            x       y       z     vdW  Elec       q    Type
REMARK                         _______ _______ _______ _____ _____    ______ ____
ROOT
ATOM     11  S   UNL     1       3.522   5.899   0.000  0.00  0.00    +0.061 S 
ATOM     12  O   UNL     1       4.272   4.601   0.000  0.00  0.00    -0.153 OA
ATOM     13  O   UNL     1       2.772   7.199   0.000  0.00  0.00    -0.153 OA
ENDROOT
BRANCH  11  14
ATOM     14  C   UNL     1       4.821   6.649   0.000  0.00  0.00    +0.106 A 
ATOM     15  C   UNL     1       6.120   5.899   0.000  0.00  0.00    +0.034 A 
ATOM     16  C   UNL     1       7.419   6.649   0.000  0.00  0.00    -0.025 A 
ATOM     17  C   UNL     1       8.718   5.899   0.000  0.00  0.00    +0.038 C 
ATOM     18  C   UNL     1      10.017   6.649   0.000  0.00  0.00    +0.023 C 
ATOM     19  C   UNL     1      10.017   8.149   0.000  0.00  0.00    +0.102 C 
ATOM     20  N   UNL     1       8.718   8.899   0.000  0.00  0.00    -0.344 N 
ATOM     21  H   UNL     1       8.718  10.400   0.000  0.00  0.00    +0.146 HD
ATOM     22  C   UNL     1       7.419   8.149   0.000  0.00  0.00    +0.030 A 
ATOM     23  C   UNL     1       6.120   8.899   0.000  0.00  0.00    +0.025 A 
ATOM     24  C   UNL     1       4.821   8.149   0.000  0.00  0.00    +0.030 A 
ENDBRANCH  11  14
BRANCH  11  10
ATOM      1  C   UNL     1       2.223   3.650   0.000  0.00  0.00    +0.083 C 
ATOM      2  C   UNL     1       0.924   2.900   0.000  0.00  0.00    +0.008 C 
ATOM      3  C   UNL     1       0.924   1.400   0.000  0.00  0.00    +0.005 C 
ATOM      4  C   UNL     1       2.223   0.649   0.000  0.00  0.00    +0.000 C 
ATOM      5  C   UNL     1       3.522   1.400   0.000  0.00  0.00    +0.002 C 
ATOM      6  C   UNL     1      -0.375   3.650   0.000  0.00  0.00    +0.006 C 
ATOM      7  C   UNL     1      -0.375   5.149   0.000  0.00  0.00    +0.017 C 
ATOM      8  C   UNL     1       0.924   5.899   0.000  0.00  0.00    +0.110 C 
ATOM      9  C   UNL     1       3.522   2.900   0.000  0.00  0.00    +0.021 C 
ATOM     10  N   UNL     1       2.223   5.149   0.000  0.00  0.00    -0.173 NA
ENDBRANCH  11  10
TORSDOF 2