REMARK  Name = 91516
REMARK  3 active torsions:
REMARK  status: ('A' for Active; 'I' for Inactive)
REMARK    1  A    between atoms: C_6  and  C_15
REMARK    2  A    between atoms: C_9  and  C_13
REMARK    3  A    between atoms: C_13  and  C_15
REMARK                            x       y       z     vdW  Elec       q    Type
REMARK                         _______ _______ _______ _____ _____    ______ ____
ROOT
ATOM      6  C   UNL     1      -4.172  -4.774   0.000  0.00  0.00    +0.234 C 
ATOM     15  O   UNL     1      -4.172  -3.275   0.000  0.00  0.00    -0.283 OA
ENDROOT
BRANCH   6   5
ATOM      1  N   UNL     1      -8.069  -5.524   0.000  0.00  0.00    -0.263 NA
ATOM      2  C   UNL     1      -8.069  -7.024   0.000  0.00  0.00    +0.111 A 
ATOM      3  C   UNL     1      -6.770  -7.774   0.000  0.00  0.00    +0.020 A 
ATOM      4  C   UNL     1      -5.471  -7.024   0.000  0.00  0.00    +0.015 A 
ATOM      5  C   UNL     1      -5.471  -5.524   0.000  0.00  0.00    +0.044 A 
ATOM     16  C   UNL     1      -6.770  -4.774   0.000  0.00  0.00    +0.122 A 
ENDBRANCH   6   5
BRANCH   6   7
ATOM      7  C   UNL     1      -2.873  -5.524   0.000  0.00  0.00    +0.234 C 
ATOM      8  O   UNL     1      -2.873  -7.024   0.000  0.00  0.00    -0.283 OA
BRANCH   7   9
ATOM      9  C   UNL     1      -1.574  -4.774   0.000  0.00  0.00    +0.044 A 
ATOM     10  C   UNL     1      -1.574  -3.275   0.000  0.00  0.00    +0.122 A 
ATOM     11  N   UNL     1      -0.275  -2.525   0.000  0.00  0.00    -0.263 NA
ATOM     12  C   UNL     1       1.025  -3.275   0.000  0.00  0.00    +0.111 A 
ATOM     13  C   UNL     1       1.025  -4.774   0.000  0.00  0.00    +0.020 A 
ATOM     14  C   UNL     1      -0.275  -5.524   0.000  0.00  0.00    +0.015 A 
ENDBRANCH   7   9
ENDBRANCH   6   7
TORSDOF 3