REMARK  Name = 42633
REMARK  5 active torsions:
REMARK  status: ('A' for Active; 'I' for Inactive)
REMARK    1  A    between atoms: C_3  and  C_7
REMARK    2  A    between atoms: C_7  and  C_8
REMARK    3  A    between atoms: C_8  and  C_9
REMARK    4  A    between atoms: C_9  and  C_10
REMARK    5  A    between atoms: C_10  and  C_11
REMARK                            x       y       z     vdW  Elec       q    Type
REMARK                         _______ _______ _______ _____ _____    ______ ____
ROOT
ATOM      1  N   UNL     1       0.750   3.000   0.000  0.00  0.00    -0.263 NA
ATOM      2  C   UNL     1       0.750   1.500   0.000  0.00  0.00    +0.111 A 
ATOM      3  C   UNL     1       2.049   0.750   0.000  0.00  0.00    +0.020 A 
ATOM      4  C   UNL     1       3.348   1.500   0.000  0.00  0.00    +0.006 A 
ATOM      5  C   UNL     1       3.348   3.000   0.000  0.00  0.00    -0.029 A 
ATOM     11  C   UNL     1       2.049   3.750   0.000  0.00  0.00    +0.114 A 
ENDROOT
BRANCH   5   6
ATOM      6  C   UNL     1       4.647   3.750   0.000  0.00  0.00    +0.036 C 
BRANCH   6   7
ATOM      7  C   UNL     1       5.946   3.000   0.000  0.00  0.00    +0.005 C 
BRANCH   7   8
ATOM      8  C   UNL     1       7.245   3.750   0.000  0.00  0.00    +0.000 C 
BRANCH   8   9
ATOM      9  C   UNL     1       8.544   3.000   0.000  0.00  0.00    -0.003 C 
ATOM     10  C   UNL     1       9.843   3.750   0.000  0.00  0.00    +0.004 C 
ENDBRANCH   8   9
ENDBRANCH   7   8
ENDBRANCH   6   7
ENDBRANCH   5   6
TORSDOF 4