REMARK  Name = 77596
REMARK  4 active torsions:
REMARK  status: ('A' for Active; 'I' for Inactive)
REMARK    1  A    between atoms: C_7  and  C_15
REMARK    2  A    between atoms: C_8  and  C_14
REMARK    3  A    between atoms: C_11  and  C_16
REMARK    4  A    between atoms: C_15  and  C_16
REMARK                            x       y       z     vdW  Elec       q    Type
REMARK                         _______ _______ _______ _____ _____    ______ ____
ROOT
ATOM      1  N   UNL     1      -6.820  -6.304   0.000  0.00  0.00    -0.203 NA
ATOM      2  C   UNL     1      -6.820  -7.804   0.000  0.00  0.00    +0.214 A 
ATOM      3  N   UNL     1      -8.119  -8.554   0.000  0.00  0.00    -0.327 N 
ATOM      4  H   UNL     1      -8.119  -9.538   0.000  0.00  0.00    +0.145 HD
ATOM      5  H   UNL     1      -8.972  -8.061   0.000  0.00  0.00    +0.145 HD
ATOM      6  N   UNL     1      -5.521  -8.554   0.000  0.00  0.00    -0.220 NA
ATOM      7  C   UNL     1      -4.222  -7.804   0.000  0.00  0.00    +0.048 A 
ATOM      8  C   UNL     1      -2.923  -8.554   0.000  0.00  0.00    +0.066 C 
ATOM      9  C   UNL     1      -4.222  -6.304   0.000  0.00  0.00    +0.011 A 
ATOM     17  C   UNL     1      -5.521  -5.554   0.000  0.00  0.00    +0.138 A 
ATOM     18 CL   UNL     1      -5.521  -4.054   0.000  0.00  0.00    -0.062 Cl
ENDROOT
BRANCH   9  10
ATOM     10  C   UNL     1      -2.923  -5.554   0.000  0.00  0.00    +0.045 C 
BRANCH  10  11
ATOM     11  C   UNL     1      -2.923  -4.054   0.000  0.00  0.00    +0.066 C 
BRANCH  11  12
ATOM     12  C   UNL     1      -1.624  -3.304   0.000  0.00  0.00    +0.251 C 
ATOM     13  O   UNL     1      -1.467  -1.812   0.000  0.00  0.00    -0.349 OA
ATOM     14  C   UNL     1       0.000  -1.500   0.000  0.00  0.00    +0.191 C 
ATOM     15  C   UNL     1       0.750  -2.799   0.000  0.00  0.00    +0.191 C 
ATOM     16  O   UNL     1      -0.254  -3.914   0.000  0.00  0.00    -0.349 OA
ENDBRANCH  11  12
ENDBRANCH  10  11
ENDBRANCH   9  10
TORSDOF 3