REMARK  Name = 73254
REMARK  5 active torsions:
REMARK  status: ('A' for Active; 'I' for Inactive)
REMARK    1  A    between atoms: C_1  and  C_21
REMARK    2  A    between atoms: C_2  and  C_20
REMARK    3  A    between atoms: N_5  and  C_8
REMARK    4  A    between atoms: N_13  and  C_27
REMARK    5  A    between atoms: C_14  and  C_20
REMARK                            x       y       z     vdW  Elec       q    Type
REMARK                         _______ _______ _______ _____ _____    ______ ____
ROOT
ATOM      1  C   UNL     1      -7.487  -6.376   0.000  0.00  0.00    +0.071 A 
ATOM      8  C   UNL     1      -6.877  -7.746   0.000  0.00  0.00    +0.048 A 
ATOM     16  C   UNL     1      -5.386  -7.589   0.000  0.00  0.00    +0.271 A 
ATOM     17  O   UNL     1      -4.382  -8.704   0.000  0.00  0.00    -0.266 OA
ATOM     18  N   UNL     1      -5.074  -6.122   0.000  0.00  0.00    -0.248 N 
ATOM     26  N   UNL     1      -6.373  -5.372   0.000  0.00  0.00    -0.294 N 
ATOM     27  H   UNL     1      -6.529  -3.880   0.000  0.00  0.00    +0.187 HD
ENDROOT
BRANCH  18  19
ATOM     19  C   UNL     1      -3.703  -5.512   0.000  0.00  0.00    +0.111 C 
ATOM     20  C   UNL     1      -2.490  -6.394   0.000  0.00  0.00    +0.042 C 
ATOM     21  C   UNL     1      -1.119  -5.784   0.000  0.00  0.00    +0.086 C 
ATOM     22  N   UNL     1      -0.963  -4.292   0.000  0.00  0.00    -0.305 NA
ATOM     23  C   UNL     1       0.408  -3.682   0.000  0.00  0.00    +0.104 C 
ATOM     24  C   UNL     1      -2.176  -3.410   0.000  0.00  0.00    +0.086 C 
ATOM     25  C   UNL     1      -3.547  -4.020   0.000  0.00  0.00    +0.042 C 
ENDBRANCH  18  19
BRANCH   1   2
ATOM      2  C   UNL     1      -8.955  -6.064   0.000  0.00  0.00    +0.000 A 
ATOM      3  C   UNL     1      -9.418  -4.637   0.000  0.00  0.00    +0.010 A 
ATOM      4  C   UNL     1     -10.885  -4.325   0.000  0.00  0.00    +0.001 A 
ATOM      5  C   UNL     1     -11.889  -5.440   0.000  0.00  0.00    +0.000 A 
ATOM      6  C   UNL     1     -11.426  -6.867   0.000  0.00  0.00    +0.001 A 
ATOM      7  C   UNL     1      -9.958  -7.179   0.000  0.00  0.00    +0.010 A 
ENDBRANCH   1   2
BRANCH   8   9
ATOM      9  C   UNL     1      -8.115  -9.890   0.000  0.00  0.00    +0.078 C 
BRANCH   9  10
ATOM     10  C   UNL     1      -9.615  -9.890   0.000  0.00  0.00    -0.043 A 
ATOM     11  C   UNL     1      -8.865 -11.188   0.000  0.00  0.00    +0.004 A 
ATOM     12  C   UNL     1      -7.365 -11.188   0.000  0.00  0.00    +0.000 A 
ATOM     13  C   UNL     1      -6.615  -9.890   0.000  0.00  0.00    +0.000 A 
ATOM     14  C   UNL     1      -7.365  -8.591   0.000  0.00  0.00    +0.000 A 
ATOM     15  C   UNL     1      -8.865  -8.591   0.000  0.00  0.00    +0.004 A 
ENDBRANCH   9  10
ENDBRANCH   8   9
TORSDOF 4