REMARK  Name = 45719
REMARK  2 active torsions:
REMARK  status: ('A' for Active; 'I' for Inactive)
REMARK    1  A    between atoms: C_9  and  S_10
REMARK    2  A    between atoms: S_10  and  C_11
REMARK                            x       y       z     vdW  Elec       q    Type
REMARK                         _______ _______ _______ _____ _____    ______ ____
ROOT
ATOM      1 CL   UNL     1      -8.319  -2.250   0.000  0.00  0.00    -0.064 Cl
ATOM      2  C   UNL     1      -7.021  -3.000   0.000  0.00  0.00    +0.114 A 
ATOM      3  C   UNL     1      -7.021  -4.500   0.000  0.00  0.00    +0.110 A 
ATOM      4  C   UNL     1      -5.721  -5.250   0.000  0.00  0.00    +0.275 A 
ATOM      5  N   UNL     1      -4.422  -4.500   0.000  0.00  0.00    -0.185 NA
ATOM      6  C   UNL     1      -4.422  -3.000   0.000  0.00  0.00    +0.171 A 
ATOM      9  O   UNL     1      -5.721  -6.750   0.000  0.00  0.00    -0.266 OA
ATOM     10  N   UNL     1      -5.721  -2.250   0.000  0.00  0.00    -0.325 N 
ATOM     11  H   UNL     1      -5.721  -0.750   0.000  0.00  0.00    +0.169 HD
ENDROOT
BRANCH   6   7
ATOM      7  S   UNL     1      -3.123  -2.250   0.000  0.00  0.00    -0.091 S 
ATOM      8  C   UNL     1      -1.824  -3.000   0.000  0.00  0.00    +0.093 C 
ENDBRANCH   6   7
TORSDOF 1