REMARK  Name = 89602
REMARK  9 active torsions:
REMARK  status: ('A' for Active; 'I' for Inactive)
REMARK    1  A    between atoms: O_1  and  C_17
REMARK    2  A    between atoms: O_1  and  C_23
REMARK    3  A    between atoms: N_2  and  C_26
REMARK    4  A    between atoms: N_3  and  C_7
REMARK    5  A    between atoms: C_19  and  O_21
REMARK    6  A    between atoms: O_21  and  C_22
REMARK    7  A    between atoms: C_23  and  C_24
REMARK    8  A    between atoms: C_24  and  O_25
REMARK    9  A    between atoms: C_24  and  C_26
REMARK                            x       y       z     vdW  Elec       q    Type
REMARK                         _______ _______ _______ _____ _____    ______ ____
ROOT
ATOM      4  C   UNL     1       3.623  -4.774   0.000  0.00  0.00    +0.119 C 
ENDROOT
BRANCH   4   5
ATOM      5  N   UNL     1       4.922  -5.524   0.000  0.00  0.00    -0.297 NA
ATOM      6  C   UNL     1       4.922  -7.024   0.000  0.00  0.00    +0.103 C 
ATOM      7  C   UNL     1       6.221  -7.774   0.000  0.00  0.00    +0.120 C 
ATOM      8  N   UNL     1       7.520  -7.024   0.000  0.00  0.00    -0.327 N 
ATOM      9  C   UNL     1       7.520  -5.524   0.000  0.00  0.00    +0.120 C 
ATOM     17  C   UNL     1       6.221  -4.774   0.000  0.00  0.00    +0.103 C 
BRANCH   8  10
ATOM     10  C   UNL     1       8.819  -7.774   0.000  0.00  0.00    +0.030 A 
ATOM     11  C   UNL     1       8.819  -9.274   0.000  0.00  0.00    +0.024 A 
ATOM     12  C   UNL     1      10.118 -10.025   0.000  0.00  0.00    +0.022 A 
ATOM     13  C   UNL     1      11.417  -9.274   0.000  0.00  0.00    +0.041 A 
ATOM     14  C   UNL     1      11.417  -7.774   0.000  0.00  0.00    +0.022 A 
ATOM     15 CL   UNL     1      12.716 -10.025   0.000  0.00  0.00    -0.084 Cl
ATOM     16  C   UNL     1      10.118  -7.024   0.000  0.00  0.00    +0.024 A 
ENDBRANCH   8  10
ENDBRANCH   4   5
BRANCH   4   3
ATOM      3  C   UNL     1       3.623  -3.275   0.000  0.00  0.00    +0.166 C 
BRANCH   3  18
ATOM     18  O   UNL     1       4.922  -2.525   0.000  0.00  0.00    -0.387 OA
ATOM     19  H   UNL     1       5.762  -3.009   0.000  0.00  0.00    +0.210 HD
ENDBRANCH   3  18
BRANCH   3   2
ATOM      2  C   UNL     1       2.324  -2.525   0.000  0.00  0.00    +0.261 C 
BRANCH   2   1
ATOM      1  O   UNL     1       2.324  -1.025   0.000  0.00  0.00    -0.489 OA
BRANCH   1  20
ATOM     20  C   UNL     1       3.623  -0.275   0.000  0.00  0.00    +0.121 A 
ATOM     21  C   UNL     1       3.623   1.226   0.000  0.00  0.00    +0.049 A 
ATOM     22  C   UNL     1       4.922   1.976   0.000  0.00  0.00    +0.049 A 
ATOM     23  C   UNL     1       6.221   1.226   0.000  0.00  0.00    +0.120 A 
ATOM     26  C   UNL     1       6.221  -0.275   0.000  0.00  0.00    +0.049 A 
ATOM     27  C   UNL     1       4.922  -1.025   0.000  0.00  0.00    +0.049 A 
BRANCH  23  24
ATOM     24  O   UNL     1       7.520   1.976   0.000  0.00  0.00    -0.495 OA
ATOM     25  C   UNL     1       8.819   1.226   0.000  0.00  0.00    +0.277 C 
ENDBRANCH  23  24
ENDBRANCH   1  20
ENDBRANCH   2   1
ENDBRANCH   3   2
ENDBRANCH   4   3
TORSDOF 8