REMARK  Name = 638134
REMARK  6 active torsions:
REMARK  status: ('A' for Active; 'I' for Inactive)
REMARK    1  A    between atoms: C_3  and  O_14
REMARK    2  A    between atoms: C_4  and  C_7
REMARK    3  A    between atoms: C_8  and  C_9
REMARK    4  A    between atoms: C_8  and  C_12
REMARK    5  A    between atoms: C_9  and  O_11
REMARK    6  A    between atoms: O_14  and  C_15
REMARK                            x       y       z     vdW  Elec       q    Type
REMARK                         _______ _______ _______ _____ _____    ______ ____
ROOT
ATOM      1  C   UNL     1       0.750   2.250   0.000  0.00  0.00    +0.004 A 
ATOM      2  C   UNL     1       2.049   1.500   0.000  0.00  0.00    +0.001 A 
ATOM      3  C   UNL     1       3.348   2.250   0.000  0.00  0.00    +0.011 A 
ATOM      4  C   UNL     1       3.348   3.750   0.000  0.00  0.00    +0.018 A 
ATOM     13  C   UNL     1       2.049   4.500   0.000  0.00  0.00    +0.127 A 
ATOM     16  C   UNL     1       0.750   3.750   0.000  0.00  0.00    +0.046 A 
ENDROOT
BRANCH   4   5
ATOM      5  C   UNL     1       4.647   4.500   0.000  0.00  0.00    +0.037 C 
ATOM      6  C   UNL     1       5.946   3.750   0.000  0.00  0.00    +0.136 C 
BRANCH   6   7
ATOM      7  C   UNL     1       5.946   2.250   0.000  0.00  0.00    +0.106 C 
ATOM      8  N   UNL     1       5.946   0.750   0.000  0.00  0.00    -0.191 NA
ENDBRANCH   6   7
BRANCH   6   9
ATOM      9  C   UNL     1       7.245   4.500   0.000  0.00  0.00    +0.347 C 
ATOM     12  O   UNL     1       7.245   6.000   0.000  0.00  0.00    -0.244 OA
BRANCH   9  10
ATOM     10  O   UNL     1       8.544   3.750   0.000  0.00  0.00    -0.477 OA
ATOM     11  H   UNL     1       8.544   2.813   0.000  0.00  0.00    +0.295 HD
ENDBRANCH   9  10
ENDBRANCH   6   9
ENDBRANCH   4   5
BRANCH  13  14
ATOM     14  O   UNL     1       2.049   6.000   0.000  0.00  0.00    -0.495 OA
ATOM     15  C   UNL     1       3.348   6.750   0.000  0.00  0.00    +0.277 C 
ENDBRANCH  13  14
TORSDOF 5