REMARK  Name = 601359
REMARK  3 active torsions:
REMARK  status: ('A' for Active; 'I' for Inactive)
REMARK    1  A    between atoms: C_7  and  O_21
REMARK    2  A    between atoms: C_8  and  C_22
REMARK    3  A    between atoms: C_17  and  N_24
REMARK                            x       y       z     vdW  Elec       q    Type
REMARK                         _______ _______ _______ _____ _____    ______ ____
ROOT
ATOM      7  C   UNL     1       8.149  -0.375   0.000  0.00  0.00    +0.252 C 
ATOM      8  N   UNL     1       8.899  -1.674   0.000  0.00  0.00    -0.281 N 
ATOM      9  H   UNL     1       8.407  -2.527   0.000  0.00  0.00    +0.155 HD
ATOM     21  O   UNL     1       8.899   0.924   0.000  0.00  0.00    -0.270 OA
ENDROOT
BRANCH   8  10
ATOM     10  C   UNL     1      10.400  -1.674   0.000  0.00  0.00    +0.041 A 
ATOM     11  C   UNL     1      11.150  -0.375   0.000  0.00  0.00    +0.025 A 
ATOM     12  C   UNL     1      12.650  -0.375   0.000  0.00  0.00    +0.018 A 
ATOM     13  C   UNL     1      13.400  -1.674   0.000  0.00  0.00    +0.026 A 
ATOM     14 BR   UNL     1      14.900  -1.674   0.000  0.00  0.00    -0.050 Br
ATOM     15  C   UNL     1      12.650  -2.973   0.000  0.00  0.00    -0.002 A 
ATOM     16  C   UNL     1      13.400  -4.272   0.000  0.00  0.00    +0.009 A 
ATOM     17  C   UNL     1      12.650  -5.571   0.000  0.00  0.00    +0.001 A 
ATOM     18  C   UNL     1      11.150  -5.571   0.000  0.00  0.00    +0.001 A 
ATOM     19  C   UNL     1      10.400  -4.272   0.000  0.00  0.00    +0.010 A 
ATOM     20  C   UNL     1      11.150  -2.973   0.000  0.00  0.00    +0.004 A 
ENDBRANCH   8  10
BRANCH   7   6
ATOM      1  C   UNL     1       3.650   2.223   0.000  0.00  0.00    +0.012 A 
ATOM      2  C   UNL     1       4.399   0.924   0.000  0.00  0.00    +0.024 A 
ATOM      3  C   UNL     1       5.899   0.924   0.000  0.00  0.00    +0.137 A 
ATOM      6  C   UNL     1       6.649  -0.375   0.000  0.00  0.00    +0.079 A 
ATOM     22  C   UNL     1       5.899  -1.674   0.000  0.00  0.00    +0.017 A 
ATOM     23  C   UNL     1       4.399  -1.674   0.000  0.00  0.00    +0.009 A 
ATOM     24  C   UNL     1       3.650  -0.375   0.000  0.00  0.00    -0.014 A 
ATOM     25  C   UNL     1       2.150  -0.375   0.000  0.00  0.00    +0.008 A 
ATOM     26  C   UNL     1       1.400   0.924   0.000  0.00  0.00    +0.001 A 
ATOM     27  C   UNL     1       2.150   2.223   0.000  0.00  0.00    +0.001 A 
BRANCH   3   4
ATOM      4  O   UNL     1       6.649   2.223   0.000  0.00  0.00    -0.505 OA
ATOM      5  H   UNL     1       7.586   2.223   0.000  0.00  0.00    +0.292 HD
ENDBRANCH   3   4
ENDBRANCH   7   6
TORSDOF 3