REMARK  Name = 68657
REMARK  2 active torsions:
REMARK  status: ('A' for Active; 'I' for Inactive)
REMARK    1  A    between atoms: N_1  and  C_14
REMARK    2  A    between atoms: C_8  and  C_10
REMARK                            x       y       z     vdW  Elec       q    Type
REMARK                         _______ _______ _______ _____ _____    ______ ____
ROOT
ATOM      7  C   UNL     1      -2.852  -5.561   0.000  0.00  0.00    -0.014 A 
ATOM      8  C   UNL     1      -2.852  -4.061   0.000  0.00  0.00    +0.091 A 
ATOM      9  N   UNL     1      -1.553  -3.311   0.000  0.00  0.00    -0.329 N 
ATOM     10  H   UNL     1      -1.553  -1.811   0.000  0.00  0.00    +0.168 HD
ATOM     11  C   UNL     1      -0.254  -4.061   0.000  0.00  0.00    +0.249 A 
ATOM     12  C   UNL     1      -0.254  -5.561   0.000  0.00  0.00    +0.070 A 
ATOM     13  O   UNL     1       1.046  -3.311   0.000  0.00  0.00    -0.268 OA
ATOM     14  C   UNL     1      -1.553  -6.311   0.000  0.00  0.00    +0.012 A 
ENDROOT
BRANCH   7   6
ATOM      1  N   UNL     1      -5.521  -5.701   0.000  0.00  0.00    -0.298 NA
ATOM      2  C   UNL     1      -5.833  -4.234   0.000  0.00  0.00    +0.105 C 
ATOM      3  C   UNL     1      -6.525  -6.816   0.000  0.00  0.00    +0.085 C 
ATOM      4  C   UNL     1      -5.775  -8.115   0.000  0.00  0.00    +0.017 C 
ATOM      5  C   UNL     1      -4.307  -7.803   0.000  0.00  0.00    +0.025 C 
ATOM      6  C   UNL     1      -4.151  -6.311   0.000  0.00  0.00    +0.088 C 
ENDBRANCH   7   6
TORSDOF 1