REMARK  Name = 88962
REMARK  5 active torsions:
REMARK  status: ('A' for Active; 'I' for Inactive)
REMARK    1  A    between atoms: C_5  and  O_11
REMARK    2  A    between atoms: C_7  and  O_13
REMARK    3  A    between atoms: C_8  and  O_14
REMARK    4  A    between atoms: O_11  and  C_12
REMARK    5  A    between atoms: O_14  and  C_15
REMARK                            x       y       z     vdW  Elec       q    Type
REMARK                         _______ _______ _______ _____ _____    ______ ____
ROOT
ATOM      1  O   UNL     1      -1.632  -1.037   0.000  0.00  0.00    -0.483 OA
ATOM      2  C   UNL     1      -0.750  -2.250   0.000  0.00  0.00    +0.308 C 
ATOM      3  C   UNL     1      -1.632  -3.463   0.000  0.00  0.00    +0.207 C 
ATOM      4  C   UNL     1      -3.058  -3.000   0.000  0.00  0.00    +0.108 A 
ATOM      5  C   UNL     1      -4.357  -3.750   0.000  0.00  0.00    +0.179 A 
ATOM      8  C   UNL     1      -5.656  -3.000   0.000  0.00  0.00    +0.202 A 
ATOM     11  C   UNL     1      -5.656  -1.500   0.000  0.00  0.00    +0.168 A 
ATOM     14  C   UNL     1      -4.357  -0.750   0.000  0.00  0.00    +0.096 A 
ATOM     15  O   UNL     1      -1.168  -4.890   0.000  0.00  0.00    -0.288 OA
ATOM     16  C   UNL     1      -3.058  -1.500   0.000  0.00  0.00    +0.139 A 
ENDROOT
BRANCH   5   6
ATOM      6  O   UNL     1      -4.357  -5.250   0.000  0.00  0.00    -0.491 OA
ATOM      7  C   UNL     1      -5.656  -6.000   0.000  0.00  0.00    +0.277 C 
ENDBRANCH   5   6
BRANCH   8   9
ATOM      9  O   UNL     1      -6.955  -3.750   0.000  0.00  0.00    -0.501 OA
ATOM     10  H   UNL     1      -7.767  -3.281   0.000  0.00  0.00    +0.292 HD
ENDBRANCH   8   9
BRANCH  11  12
ATOM     12  O   UNL     1      -6.955  -0.750   0.000  0.00  0.00    -0.491 OA
ATOM     13  C   UNL     1      -8.254  -1.500   0.000  0.00  0.00    +0.277 C 
ENDBRANCH  11  12
TORSDOF 3