REMARK  Name = 637827
REMARK  0 active torsions:
REMARK  status: ('A' for Active; 'I' for Inactive)
REMARK                            x       y       z     vdW  Elec       q    Type
REMARK                         _______ _______ _______ _____ _____    ______ ____
ROOT
ATOM      1  C   UNL     1       5.311  -0.443   0.000  0.00  0.00    +0.040 C 
ATOM      2  C   UNL     1       4.376   0.730   0.000  0.00  0.00    -0.040 A 
ATOM      3  C   UNL     1       2.943   0.288   0.000  0.00  0.00    +0.004 A 
ATOM      4  C   UNL     1       1.843   1.308   0.000  0.00  0.00    +0.000 A 
ATOM      5  C   UNL     1       2.177   2.770   0.000  0.00  0.00    +0.000 A 
ATOM      6  C   UNL     1       3.610   3.212   0.000  0.00  0.00    +0.008 A 
ATOM      7  C   UNL     1       4.710   2.192   0.000  0.00  0.00    +0.004 A 
ATOM      8  C   UNL     1       6.061   2.843   0.000  0.00  0.00    +0.168 C 
ATOM      9  C   UNL     1       7.275   3.725   0.000  0.00  0.00    +0.099 C 
ATOM     10  C   UNL     1       6.811   5.151   0.000  0.00  0.00    +0.034 C 
ATOM     11  C   UNL     1       7.693   6.365   0.000  0.00  0.00    +0.019 C 
ATOM     12  C   UNL     1       5.311   5.151   0.000  0.00  0.00    +0.336 C 
ATOM     13  O   UNL     1       4.430   6.365   0.000  0.00  0.00    -0.245 OA
ATOM     14  O   UNL     1       4.848   3.725   0.000  0.00  0.00    -0.445 OA
ATOM     15  C   UNL     1       7.413   2.192   0.000  0.00  0.00    +0.004 A 
ATOM     16  C   UNL     1       8.512   3.212   0.000  0.00  0.00    +0.008 A 
ATOM     17  C   UNL     1       9.946   2.770   0.000  0.00  0.00    +0.000 A 
ATOM     18  C   UNL     1      10.280   1.308   0.000  0.00  0.00    +0.000 A 
ATOM     19  C   UNL     1       9.180   0.288   0.000  0.00  0.00    +0.004 A 
ATOM     20  C   UNL     1       7.747   0.730   0.000  0.00  0.00    -0.040 A 
ATOM     21  C   UNL     1       6.811  -0.443   0.000  0.00  0.00    +0.040 C 
ENDROOT
TORSDOF 0