REMARK  Name = 42774
REMARK  3 active torsions:
REMARK  status: ('A' for Active; 'I' for Inactive)
REMARK    1  A    between atoms: N_2  and  C_13
REMARK    2  A    between atoms: C_8  and  C_12
REMARK    3  A    between atoms: C_12  and  C_13
REMARK                            x       y       z     vdW  Elec       q    Type
REMARK                         _______ _______ _______ _____ _____    ______ ____
ROOT
ATOM      5  C   UNL     1       3.522   4.399   0.000  0.00  0.00    +0.057 C 
ENDROOT
BRANCH   5   4
ATOM      1  N   UNL     1      -0.375   2.150   0.000  0.00  0.00    -0.263 NA
ATOM      2  C   UNL     1       0.924   1.400   0.000  0.00  0.00    +0.111 A 
ATOM      3  C   UNL     1       2.223   2.150   0.000  0.00  0.00    +0.023 A 
ATOM      4  C   UNL     1       2.223   3.650   0.000  0.00  0.00    -0.043 A 
ATOM     12  C   UNL     1       0.924   4.399   0.000  0.00  0.00    +0.023 A 
ATOM     13  C   UNL     1      -0.375   3.650   0.000  0.00  0.00    +0.111 A 
ENDBRANCH   5   4
BRANCH   5   6
ATOM      6  C   UNL     1       3.522   5.899   0.000  0.00  0.00    +0.126 C 
BRANCH   6   7
ATOM      7  N   UNL     1       4.821   6.649   0.000  0.00  0.00    -0.353 N 
ATOM      8  C   UNL     1       6.191   6.039   0.000  0.00  0.00    +0.085 A 
ATOM      9  C   UNL     1       7.195   7.154   0.000  0.00  0.00    +0.019 A 
ATOM     10  C   UNL     1       6.445   8.453   0.000  0.00  0.00    +0.019 A 
ATOM     11  C   UNL     1       4.978   8.141   0.000  0.00  0.00    +0.085 A 
ENDBRANCH   6   7
ENDBRANCH   5   6
TORSDOF 3