REMARK  Name = 632536
REMARK  8 active torsions:
REMARK  status: ('A' for Active; 'I' for Inactive)
REMARK    1  A    between atoms: C_1  and  C_9
REMARK    2  A    between atoms: C_1  and  C_10
REMARK    3  A    between atoms: C_3  and  C_7
REMARK    4  A    between atoms: C_3  and  C_8
REMARK    5  A    between atoms: C_5  and  N_17
REMARK    6  A    between atoms: C_11  and  N_17
REMARK    7  A    between atoms: C_14  and  N_18
REMARK    8  A    between atoms: N_18  and  C_19
REMARK                            x       y       z     vdW  Elec       q    Type
REMARK                         _______ _______ _______ _____ _____    ______ ____
ROOT
ATOM      8  C   UNL     1       1.425   6.566   0.000  0.00  0.00    +0.027 A 
ATOM      9  C   UNL     1       2.925   6.566   0.000  0.00  0.00    +0.025 A 
ATOM     10  C   UNL     1       3.675   7.865   0.000  0.00  0.00    +0.025 A 
ATOM     11  C   UNL     1       2.925   9.164   0.000  0.00  0.00    +0.031 A 
ATOM     20  C   UNL     1       1.425   9.164   0.000  0.00  0.00    +0.025 A 
ATOM     21  C   UNL     1       0.675   7.865   0.000  0.00  0.00    +0.025 A 
ENDROOT
BRANCH   8   6
ATOM      6  N   UNL     1       0.675   5.267   0.000  0.00  0.00    -0.341 N 
ATOM      7  H   UNL     1       1.167   4.415   0.000  0.00  0.00    +0.146 HD
BRANCH   6   5
ATOM      1  C   UNL     1      -3.075   3.968   0.000  0.00  0.00    +0.016 C 
ATOM      2  C   UNL     1      -2.814   2.491   0.000  0.00  0.00    +0.027 C 
ATOM      3  C   UNL     1      -4.484   3.455   0.000  0.00  0.00    +0.027 C 
ATOM      4  C   UNL     1      -1.575   3.968   0.000  0.00  0.00    +0.043 C 
ATOM      5  C   UNL     1      -0.825   5.267   0.000  0.00  0.00    +0.074 C 
ATOM     22  C   UNL     1      -1.575   6.566   0.000  0.00  0.00    +0.043 C 
ATOM     23  C   UNL     1      -3.075   6.566   0.000  0.00  0.00    +0.016 C 
ATOM     24  C   UNL     1      -2.814   8.043   0.000  0.00  0.00    +0.027 C 
ATOM     25  C   UNL     1      -4.484   7.079   0.000  0.00  0.00    +0.027 C 
ATOM     26  N   UNL     1      -3.825   5.267   0.000  0.00  0.00    -0.306 NA
ATOM     27  H   UNL     1      -4.845   5.267   0.000  0.00  0.00    +0.123 HD
ENDBRANCH   6   5
ENDBRANCH   8   6
BRANCH  11  12
ATOM     12  N   UNL     1       3.675  10.463   0.000  0.00  0.00    -0.314 N 
ATOM     13  H   UNL     1       4.659  10.463   0.000  0.00  0.00    +0.152 HD
BRANCH  12  14
ATOM     14  C   UNL     1       2.925  11.762   0.000  0.00  0.00    +0.031 A 
ATOM     15  C   UNL     1       3.675  13.062   0.000  0.00  0.00    +0.023 A 
ATOM     16  C   UNL     1       2.925  14.361   0.000  0.00  0.00    +0.002 A 
ATOM     17  C   UNL     1       1.425  14.361   0.000  0.00  0.00    +0.000 A 
ATOM     18  C   UNL     1       0.675  13.062   0.000  0.00  0.00    +0.002 A 
ATOM     19  C   UNL     1       1.425  11.762   0.000  0.00  0.00    +0.023 A 
ENDBRANCH  12  14
ENDBRANCH  11  12
TORSDOF 4