REMARK  Name = 86467
REMARK  5 active torsions:
REMARK  status: ('A' for Active; 'I' for Inactive)
REMARK    1  A    between atoms: O_1  and  C_20
REMARK    2  A    between atoms: O_1  and  C_26
REMARK    3  A    between atoms: C_8  and  C_27
REMARK    4  A    between atoms: C_23  and  O_25
REMARK    5  A    between atoms: C_23  and  C_26
REMARK                            x       y       z     vdW  Elec       q    Type
REMARK                         _______ _______ _______ _____ _____    ______ ____
ROOT
ATOM      7  C   UNL     1      -0.160 -11.786   0.000  0.00  0.00    +0.122 A 
ATOM      8  C   UNL     1       1.331 -11.629   0.000  0.00  0.00    +0.049 A 
ATOM      9  C   UNL     1       1.942 -10.259   0.000  0.00  0.00    -0.040 A 
ATOM     10  C   UNL     1       3.433 -10.102   0.000  0.00  0.00    +0.036 C 
ATOM     11  C   UNL     1       4.043  -8.731   0.000  0.00  0.00    +0.009 C 
ATOM     12  C   UNL     1       3.162  -7.518   0.000  0.00  0.00    +0.001 C 
ATOM     13  C   UNL     1       1.670  -7.675   0.000  0.00  0.00    +0.023 C 
ATOM     14  C   UNL     1       0.788  -6.461   0.000  0.00  0.00    +0.009 C 
ATOM     15  C   UNL     1       1.398  -5.091   0.000  0.00  0.00    +0.015 C 
ATOM     16  C   UNL     1       2.890  -4.934   0.000  0.00  0.00    +0.029 C 
ATOM     17  C   UNL     1       2.140  -3.635   0.000  0.00  0.00    +0.019 C 
ATOM     18  C   UNL     1       3.772  -3.720   0.000  0.00  0.00    +0.139 C 
ATOM     19  C   UNL     1       5.198  -4.184   0.000  0.00  0.00    +0.075 C 
ATOM     20  C   UNL     1       5.198  -5.684   0.000  0.00  0.00    +0.012 C 
ATOM     21  O   UNL     1       3.308  -2.294   0.000  0.00  0.00    -0.297 OA
ATOM     22  C   UNL     1       3.772  -6.148   0.000  0.00  0.00    +0.006 C 
ATOM     23  C   UNL     1       1.060  -9.045   0.000  0.00  0.00    -0.041 A 
ATOM     24  C   UNL     1      -0.432  -9.202   0.000  0.00  0.00    +0.008 A 
ATOM     25  C   UNL     1      -1.042 -10.572   0.000  0.00  0.00    +0.046 A 
ENDROOT
BRANCH   7   1
ATOM      1  O   UNL     1      -0.770 -13.156   0.000  0.00  0.00    -0.481 OA
BRANCH   1   2
ATOM      2  C   UNL     1      -2.262 -13.313   0.000  0.00  0.00    +0.349 C 
BRANCH   2   3
ATOM      3  C   UNL     1      -3.144 -12.099   0.000  0.00  0.00    +0.343 C 
ATOM      6  O   UNL     1      -2.534 -10.729   0.000  0.00  0.00    -0.247 OA
BRANCH   3   4
ATOM      4  O   UNL     1      -4.636 -12.256   0.000  0.00  0.00    -0.478 OA
ATOM      5  H   UNL     1      -5.187 -11.498   0.000  0.00  0.00    +0.295 HD
ENDBRANCH   3   4
ENDBRANCH   2   3
ENDBRANCH   1   2
ENDBRANCH   7   1
TORSDOF 4