REMARK  Name = 77913
REMARK  1 active torsions:
REMARK  status: ('A' for Active; 'I' for Inactive)
REMARK    1  A    between atoms: C_7  and  C_10
REMARK                            x       y       z     vdW  Elec       q    Type
REMARK                         _______ _______ _______ _____ _____    ______ ____
ROOT
ATOM      1  C   UNL     1       1.674   0.101   0.000  0.00  0.00    +0.018 A 
ATOM      2  C   UNL     1       1.674  -1.400   0.000  0.00  0.00    +0.093 A 
ATOM      3  N   UNL     1       2.973  -2.150   0.000  0.00  0.00    -0.306 N 
ATOM      4  C   UNL     1       3.285  -3.617   0.000  0.00  0.00    +0.121 A 
ATOM      5  C   UNL     1       4.777  -3.773   0.000  0.00  0.00    +0.090 A 
ATOM     12  N   UNL     1       5.387  -2.403   0.000  0.00  0.00    -0.228 NA
ATOM     13  C   UNL     1       4.272  -1.400   0.000  0.00  0.00    +0.138 A 
ATOM     14  C   UNL     1       4.272   0.101   0.000  0.00  0.00    +0.047 A 
ATOM     15  C   UNL     1       2.973   0.851   0.000  0.00  0.00    +0.005 A 
ENDROOT
BRANCH   5   6
ATOM      6  C   UNL     1       5.527  -5.073   0.000  0.00  0.00    +0.002 A 
ATOM      7  C   UNL     1       4.777  -6.372   0.000  0.00  0.00    +0.010 A 
ATOM      8  C   UNL     1       5.527  -7.671   0.000  0.00  0.00    +0.001 A 
ATOM      9  C   UNL     1       7.027  -7.671   0.000  0.00  0.00    +0.000 A 
ATOM     10  C   UNL     1       7.777  -6.372   0.000  0.00  0.00    +0.001 A 
ATOM     11  C   UNL     1       7.027  -5.073   0.000  0.00  0.00    +0.010 A 
ENDBRANCH   5   6
TORSDOF 1