REMARK  Name = 88882
REMARK  1 active torsions:
REMARK  status: ('A' for Active; 'I' for Inactive)
REMARK    1  A    between atoms: C_3  and  O_15
REMARK                            x       y       z     vdW  Elec       q    Type
REMARK                         _______ _______ _______ _____ _____    ______ ____
ROOT
ATOM      1  N   UNL     1      -4.647  -2.250   0.000  0.00  0.00    -0.240 NA
ATOM      2  C   UNL     1      -3.348  -3.000   0.000  0.00  0.00    +0.131 A 
ATOM      3  C   UNL     1      -3.348  -4.500   0.000  0.00  0.00    +0.093 A 
ATOM      4  C   UNL     1      -2.049  -5.250   0.000  0.00  0.00    +0.030 A 
ATOM      5  C   UNL     1      -0.750  -4.500   0.000  0.00  0.00    +0.006 A 
ATOM      6  C   UNL     1      -0.750  -3.000   0.000  0.00  0.00    +0.048 A 
ATOM      7  N   UNL     1      -4.647  -5.250   0.000  0.00  0.00    -0.243 NA
ATOM      8  C   UNL     1      -5.946  -4.500   0.000  0.00  0.00    +0.090 A 
ATOM      9  C   UNL     1      -7.245  -5.250   0.000  0.00  0.00    +0.030 A 
ATOM     10  C   UNL     1      -8.544  -4.500   0.000  0.00  0.00    +0.002 A 
ATOM     11  C   UNL     1      -8.544  -3.000   0.000  0.00  0.00    +0.002 A 
ATOM     12  C   UNL     1      -7.245  -2.250   0.000  0.00  0.00    +0.030 A 
ATOM     13  C   UNL     1      -2.049  -2.250   0.000  0.00  0.00    +0.144 A 
ATOM     16  C   UNL     1      -5.946  -3.000   0.000  0.00  0.00    +0.090 A 
ENDROOT
BRANCH  13  14
ATOM     14  O   UNL     1      -2.049  -0.750   0.000  0.00  0.00    -0.505 OA
ATOM     15  H   UNL     1      -1.238  -0.281   0.000  0.00  0.00    +0.292 HD
ENDBRANCH  13  14
TORSDOF 1