REMARK  Name = 95204
REMARK  10 active torsions:
REMARK  status: ('A' for Active; 'I' for Inactive)
REMARK    1  A    between atoms: C_7  and  N_10
REMARK    2  A    between atoms: N_11  and  P_16
REMARK    3  A    between atoms: O_12  and  C_13
REMARK    4  A    between atoms: O_12  and  P_16
REMARK    5  A    between atoms: C_13  and  C_14
REMARK    6  A    between atoms: C_14  and  C_15
REMARK    7  A    between atoms: P_16  and  O_17
REMARK    8  A    between atoms: O_17  and  C_18
REMARK    9  A    between atoms: C_18  and  C_19
REMARK   10  A    between atoms: C_19  and  C_20
REMARK                            x       y       z     vdW  Elec       q    Type
REMARK                         _______ _______ _______ _____ _____    ______ ____
ROOT
ATOM      1  H   UNL     1      -0.520  -5.401   0.000  0.00  0.00    +0.170 HD
ATOM      2  N   UNL     1      -0.520  -6.901   0.000  0.00  0.00    -0.316 N 
ATOM      3  C   UNL     1      -1.819  -7.651   0.000  0.00  0.00    +0.101 A 
ATOM      7  C   UNL     1      -1.819  -9.151   0.000  0.00  0.00    +0.113 A 
ATOM      8  C   UNL     1      -0.520  -9.901   0.000  0.00  0.00    +0.276 A 
ATOM      9  N   UNL     1       0.779  -9.151   0.000  0.00  0.00    -0.177 NA
ATOM     10  O   UNL     1      -0.520 -11.401   0.000  0.00  0.00    -0.266 OA
ATOM     11  C   UNL     1       0.779  -7.651   0.000  0.00  0.00    +0.204 A 
ATOM     12  N   UNL     1       2.078  -6.901   0.000  0.00  0.00    -0.248 N 
ATOM     13  H   UNL     1       2.078  -5.916   0.000  0.00  0.00    +0.158 HD
ENDROOT
BRANCH   3   4
ATOM      4  N   UNL     1      -3.118  -6.901   0.000  0.00  0.00    -0.344 N 
ATOM      5  H   UNL     1      -3.971  -7.393   0.000  0.00  0.00    +0.144 HD
ATOM      6  H   UNL     1      -3.118  -5.916   0.000  0.00  0.00    +0.144 HD
ENDBRANCH   3   4
BRANCH  12  14
ATOM     14  P   UNL     1       3.377  -7.651   0.000  0.00  0.00    +0.263 P 
ATOM     23  S   UNL     1       4.676  -8.401   0.000  0.00  0.00    +0.013 S 
BRANCH  14  15
ATOM     15  O   UNL     1       2.627  -8.950   0.000  0.00  0.00    -0.317 OA
BRANCH  15  16
ATOM     16  C   UNL     1       3.377 -10.249   0.000  0.00  0.00    +0.169 C 
BRANCH  16  17
ATOM     17  C   UNL     1       2.627 -11.548   0.000  0.00  0.00    +0.025 C 
ATOM     18  C   UNL     1       1.127 -11.548   0.000  0.00  0.00    +0.006 C 
ENDBRANCH  16  17
ENDBRANCH  15  16
ENDBRANCH  14  15
BRANCH  14  19
ATOM     19  O   UNL     1       4.127  -6.352   0.000  0.00  0.00    -0.317 OA
BRANCH  19  20
ATOM     20  C   UNL     1       3.377  -5.053   0.000  0.00  0.00    +0.169 C 
BRANCH  20  21
ATOM     21  C   UNL     1       1.877  -5.053   0.000  0.00  0.00    +0.025 C 
ATOM     22  C   UNL     1       1.127  -3.754   0.000  0.00  0.00    +0.006 C 
ENDBRANCH  20  21
ENDBRANCH  19  20
ENDBRANCH  14  19
ENDBRANCH  12  14
TORSDOF 8