REMARK  Name = 63963
REMARK  7 active torsions:
REMARK  status: ('A' for Active; 'I' for Inactive)
REMARK    1  A    between atoms: C_9  and  C_11
REMARK    2  A    between atoms: C_11  and  C_12
REMARK    3  A    between atoms: C_12  and  N_13
REMARK    4  A    between atoms: C_12  and  C_14
REMARK    5  A    between atoms: C_14  and  C_15
REMARK    6  A    between atoms: C_16  and  O_17
REMARK    7  A    between atoms: C_16  and  C_19
REMARK                            x       y       z     vdW  Elec       q    Type
REMARK                         _______ _______ _______ _____ _____    ______ ____
ROOT
ATOM      1  C   UNL     1     -11.540  -3.417   0.000  0.00  0.00    +0.302 C 
ATOM      2  C   UNL     1     -10.241  -4.167   0.000  0.00  0.00    +0.136 C 
ATOM      3  O   UNL     1     -11.540  -1.917   0.000  0.00  0.00    -0.251 OA
ENDROOT
BRANCH   1   4
ATOM      4  O   UNL     1     -12.839  -4.167   0.000  0.00  0.00    -0.481 OA
ATOM      5  H   UNL     1     -13.650  -3.698   0.000  0.00  0.00    +0.295 HD
ENDBRANCH   1   4
TORSDOF 1