REMARK  Name = 79486
REMARK  12 active torsions:
REMARK  status: ('A' for Active; 'I' for Inactive)
REMARK    1  A    between atoms: C_3  and  C_15
REMARK    2  A    between atoms: C_6  and  C_17
REMARK    3  A    between atoms: C_8  and  C_16
REMARK    4  A    between atoms: C_17  and  N_18
REMARK    5  A    between atoms: N_18  and  C_19
REMARK    6  A    between atoms: C_19  and  C_20
REMARK    7  A    between atoms: C_20  and  O_21
REMARK    8  A    between atoms: C_20  and  O_24
REMARK    9  A    between atoms: O_21  and  C_22
REMARK   10  A    between atoms: C_22  and  C_23
REMARK   11  A    between atoms: O_24  and  C_25
REMARK   12  A    between atoms: C_25  and  C_26
REMARK                            x       y       z     vdW  Elec       q    Type
REMARK                         _______ _______ _______ _____ _____    ______ ____
ROOT
ATOM      1  H   UNL     1     -12.730  -3.473   0.000  0.00  0.00    +0.166 HD
ATOM      2  N   UNL     1     -12.267  -4.899   0.000  0.00  0.00    -0.354 N 
ATOM      3  C   UNL     1     -13.148  -6.113   0.000  0.00  0.00    +0.047 A 
ATOM      4  C   UNL     1     -14.640  -6.269   0.000  0.00  0.00    +0.026 A 
ATOM      5  C   UNL     1     -15.250  -7.640   0.000  0.00  0.00    +0.002 A 
ATOM      6  C   UNL     1     -14.368  -8.853   0.000  0.00  0.00    +0.001 A 
ATOM      7  C   UNL     1     -12.877  -8.697   0.000  0.00  0.00    +0.010 A 
ATOM      8  C   UNL     1     -12.267  -7.326   0.000  0.00  0.00    +0.008 A 
ATOM      9  C   UNL     1     -10.840  -6.863   0.000  0.00  0.00    +0.011 A 
ATOM     10  C   UNL     1      -9.541  -7.613   0.000  0.00  0.00    -0.036 A 
ATOM     11  C   UNL     1      -9.541  -9.113   0.000  0.00  0.00    +0.045 C 
ATOM     12  C   UNL     1      -8.242  -6.863   0.000  0.00  0.00    -0.030 A 
ATOM     24  C   UNL     1      -8.242  -5.363   0.000  0.00  0.00    +0.010 A 
ATOM     25  C   UNL     1      -9.541  -4.613   0.000  0.00  0.00    -0.026 A 
ATOM     26  C   UNL     1      -9.541  -3.113   0.000  0.00  0.00    +0.046 C 
ATOM     27  C   UNL     1     -10.840  -5.363   0.000  0.00  0.00    +0.051 A 
ENDROOT
BRANCH  12  13
ATOM     13  C   UNL     1      -6.943  -7.613   0.000  0.00  0.00    +0.116 C 
BRANCH  13  14
ATOM     14  N   UNL     1      -5.644  -6.863   0.000  0.00  0.00    -0.307 NA
ATOM     15  H   UNL     1      -5.644  -5.843   0.000  0.00  0.00    +0.122 HD
BRANCH  14  16
ATOM     16  C   UNL     1      -4.345  -7.613   0.000  0.00  0.00    +0.142 C 
BRANCH  16  17
ATOM     17  C   UNL     1      -3.046  -6.863   0.000  0.00  0.00    +0.264 C 
BRANCH  17  18
ATOM     18  O   UNL     1      -3.046  -5.363   0.000  0.00  0.00    -0.350 OA
BRANCH  18  19
ATOM     19  C   UNL     1      -4.345  -4.613   0.000  0.00  0.00    +0.159 C 
ATOM     20  C   UNL     1      -5.644  -5.363   0.000  0.00  0.00    +0.034 C 
ENDBRANCH  18  19
ENDBRANCH  17  18
BRANCH  17  21
ATOM     21  O   UNL     1      -1.747  -7.613   0.000  0.00  0.00    -0.350 OA
BRANCH  21  22
ATOM     22  C   UNL     1      -0.448  -6.863   0.000  0.00  0.00    +0.159 C 
ATOM     23  C   UNL     1       0.851  -7.613   0.000  0.00  0.00    +0.034 C 
ENDBRANCH  21  22
ENDBRANCH  17  21
ENDBRANCH  16  17
ENDBRANCH  14  16
ENDBRANCH  13  14
ENDBRANCH  12  13
TORSDOF 8