REMARK  Name = 41400
REMARK  9 active torsions:
REMARK  status: ('A' for Active; 'I' for Inactive)
REMARK    1  A    between atoms: AS_1  and  C_8
REMARK    2  A    between atoms: AS_1  and  C_11
REMARK    3  A    between atoms: AS_1  and  C_16
REMARK    4  A    between atoms: C_5  and  N_25
REMARK    5  A    between atoms: C_14  and  N_29
REMARK    6  A    between atoms: C_20  and  N_21
REMARK    7  A    between atoms: C_22  and  C_24
REMARK    8  A    between atoms: C_26  and  C_28
REMARK    9  A    between atoms: C_30  and  C_32
REMARK                            x       y       z     vdW  Elec       q    Type
REMARK                         _______ _______ _______ _____ _____    ______ ____
ROOT
ATOM      1 AS   UNL     1       8.544   7.500   0.000  0.00  0.00    +0.000 As
ATOM     35  O   UNL     1       7.794   6.201   0.000  0.00  0.00    +0.000 OA
ENDROOT
BRANCH   1   2
ATOM      2  C   UNL     1       7.245   8.250   0.000  0.00  0.00    +0.000 A 
ATOM      3  C   UNL     1       5.946   7.500   0.000  0.00  0.00    +0.000 A 
ATOM      4  C   UNL     1       4.647   8.250   0.000  0.00  0.00    +0.000 A 
ATOM     10  C   UNL     1       4.647   9.750   0.000  0.00  0.00    +0.000 A 
ATOM     11  C   UNL     1       5.946  10.500   0.000  0.00  0.00    +0.000 A 
ATOM     12  C   UNL     1       7.245   9.750   0.000  0.00  0.00    +0.000 A 
BRANCH   4   5
ATOM      5  N   UNL     1       3.348   7.500   0.000  0.00  0.00    +0.000 N 
ATOM      6  H   UNL     1       3.348   6.516   0.000  0.00  0.00    +0.000 HD
ATOM      7  C   UNL     1       2.049   8.250   0.000  0.00  0.00    +0.000 C 
ATOM      8  C   UNL     1       0.750   7.500   0.000  0.00  0.00    +0.000 C 
ATOM      9  O   UNL     1       2.049   9.750   0.000  0.00  0.00    +0.000 OA
ENDBRANCH   4   5
ENDBRANCH   1   2
BRANCH   1  13
ATOM     13  C   UNL     1       9.843   6.750   0.000  0.00  0.00    +0.000 A 
ATOM     14  C   UNL     1       9.843   5.250   0.000  0.00  0.00    +0.000 A 
ATOM     15  C   UNL     1      11.142   4.500   0.000  0.00  0.00    +0.000 A 
ATOM     21  C   UNL     1      12.441   5.250   0.000  0.00  0.00    +0.000 A 
ATOM     22  C   UNL     1      12.441   6.750   0.000  0.00  0.00    +0.000 A 
ATOM     23  C   UNL     1      11.142   7.500   0.000  0.00  0.00    +0.000 A 
BRANCH  15  16
ATOM     16  N   UNL     1      11.142   3.000   0.000  0.00  0.00    +0.000 N 
ATOM     17  H   UNL     1      11.995   2.508   0.000  0.00  0.00    +0.000 HD
ATOM     18  C   UNL     1       9.843   2.250   0.000  0.00  0.00    +0.000 C 
ATOM     19  C   UNL     1       9.843   0.750   0.000  0.00  0.00    +0.000 C 
ATOM     20  O   UNL     1       8.544   3.000   0.000  0.00  0.00    +0.000 OA
ENDBRANCH  15  16
ENDBRANCH   1  13
BRANCH   1  24
ATOM     24  C   UNL     1       9.294   8.799   0.000  0.00  0.00    +0.000 A 
ATOM     25  C   UNL     1       8.544  10.098   0.000  0.00  0.00    +0.000 A 
ATOM     26  C   UNL     1       9.294  11.397   0.000  0.00  0.00    +0.000 A 
ATOM     27  C   UNL     1      10.794  11.397   0.000  0.00  0.00    +0.000 A 
ATOM     28  C   UNL     1      11.544  10.098   0.000  0.00  0.00    +0.000 A 
ATOM     34  C   UNL     1      10.794   8.799   0.000  0.00  0.00    +0.000 A 
BRANCH  28  29
ATOM     29  N   UNL     1      13.044  10.098   0.000  0.00  0.00    +0.000 N 
ATOM     30  H   UNL     1      13.536  10.951   0.000  0.00  0.00    +0.000 HD
ATOM     31  C   UNL     1      13.794   8.799   0.000  0.00  0.00    +0.000 C 
ATOM     32  C   UNL     1      13.044   7.500   0.000  0.00  0.00    +0.000 C 
ATOM     33  O   UNL     1      15.294   8.799   0.000  0.00  0.00    +0.000 OA
ENDBRANCH  28  29
ENDBRANCH   1  24
TORSDOF 6