REMARK  Name = 50572
REMARK  6 active torsions:
REMARK  status: ('A' for Active; 'I' for Inactive)
REMARK    1  A    between atoms: C_4  and  C_11
REMARK    2  A    between atoms: C_6  and  C_12
REMARK    3  A    between atoms: C_9  and  S_13
REMARK    4  A    between atoms: S_13  and  C_14
REMARK    5  A    between atoms: C_14  and  C_15
REMARK    6  A    between atoms: C_14  and  C_16
REMARK                            x       y       z     vdW  Elec       q    Type
REMARK                         _______ _______ _______ _____ _____    ______ ____
ROOT
ATOM      1  N   UNL     1      -1.232   8.365   0.000  0.00  0.00    -0.232 NA
ATOM      2  C   UNL     1       0.067   7.615   0.000  0.00  0.00    +0.166 A 
ATOM      3  C   UNL     1       0.067   6.115   0.000  0.00  0.00    +0.054 A 
ATOM      4  C   UNL     1       1.366   5.365   0.000  0.00  0.00    +0.112 A 
ATOM      9  N   UNL     1       2.665   6.115   0.000  0.00  0.00    -0.208 NA
ATOM     10  C   UNL     1       2.665   7.615   0.000  0.00  0.00    +0.215 A 
ATOM     11  N   UNL     1       3.964   8.365   0.000  0.00  0.00    -0.327 N 
ATOM     12  H   UNL     1       3.964   9.350   0.000  0.00  0.00    +0.145 HD
ATOM     13  H   UNL     1       4.816   7.873   0.000  0.00  0.00    +0.145 HD
ATOM     14  C   UNL     1      -1.232   5.365   0.000  0.00  0.00    -0.036 A 
ATOM     15  C   UNL     1      -1.232   3.865   0.000  0.00  0.00    +0.044 C 
ATOM     16  C   UNL     1      -2.531   6.115   0.000  0.00  0.00    +0.027 A 
ATOM     17  N   UNL     1       1.366   8.365   0.000  0.00  0.00    -0.195 NA
ATOM     18  C   UNL     1      -2.531   7.615   0.000  0.00  0.00    +0.041 A 
ATOM     19  C   UNL     1      -3.830   8.365   0.000  0.00  0.00    +0.065 C 
ENDROOT
BRANCH   4   5
ATOM      5  S   UNL     1       1.366   3.865   0.000  0.00  0.00    -0.102 S 
BRANCH   5   6
ATOM      6  C   UNL     1       2.665   3.115   0.000  0.00  0.00    +0.047 C 
ATOM      7  C   UNL     1       3.964   3.865   0.000  0.00  0.00    +0.019 C 
ATOM      8  C   UNL     1       2.665   1.615   0.000  0.00  0.00    +0.019 C 
ENDBRANCH   5   6
ENDBRANCH   4   5
TORSDOF 2