REMARK  Name = 89349
REMARK  4 active torsions:
REMARK  status: ('A' for Active; 'I' for Inactive)
REMARK    1  A    between atoms: C_7  and  S_8
REMARK    2  A    between atoms: S_8  and  C_16
REMARK    3  A    between atoms: C_10  and  N_17
REMARK    4  A    between atoms: C_16  and  N_17
REMARK                            x       y       z     vdW  Elec       q    Type
REMARK                         _______ _______ _______ _____ _____    ______ ____
ROOT
ATOM      7  C   UNL     1      -7.967  -1.995   0.000  0.00  0.00    +0.176 C 
ENDROOT
BRANCH   7   8
ATOM      8  N   UNL     1      -7.217  -3.294   0.000  0.00  0.00    -0.333 N 
ATOM      9  H   UNL     1      -7.710  -4.147   0.000  0.00  0.00    +0.147 HD
BRANCH   8  10
ATOM     10  C   UNL     1      -5.717  -3.294   0.000  0.00  0.00    +0.046 A 
ATOM     11  C   UNL     1      -4.967  -4.593   0.000  0.00  0.00    +0.024 A 
ATOM     12  C   UNL     1      -3.467  -4.593   0.000  0.00  0.00    +0.002 A 
ATOM     13  C   UNL     1      -2.717  -3.294   0.000  0.00  0.00    +0.002 A 
ATOM     14  C   UNL     1      -3.467  -1.995   0.000  0.00  0.00    +0.022 A 
ATOM     15  C   UNL     1      -4.967  -1.995   0.000  0.00  0.00    +0.062 A 
ATOM     16 CL   UNL     1      -5.717  -0.696   0.000  0.00  0.00    -0.082 Cl
ENDBRANCH   8  10
ENDBRANCH   7   8
BRANCH   7   6
ATOM      6  S   UNL     1      -7.003  -0.846   0.000  0.00  0.00    -0.106 S 
BRANCH   6   5
ATOM      1 CL   UNL     1      -9.055   4.792   0.000  0.00  0.00    -0.084 Cl
ATOM      2  C   UNL     1      -8.542   3.383   0.000  0.00  0.00    +0.041 A 
ATOM      3  C   UNL     1      -7.065   3.122   0.000  0.00  0.00    +0.021 A 
ATOM      4  C   UNL     1      -6.552   1.713   0.000  0.00  0.00    +0.016 A 
ATOM      5  C   UNL     1      -7.516   0.564   0.000  0.00  0.00    +0.009 A 
ATOM     17  C   UNL     1      -8.993   0.824   0.000  0.00  0.00    +0.016 A 
ATOM     18  C   UNL     1      -9.507   2.234   0.000  0.00  0.00    +0.021 A 
ENDBRANCH   6   5
ENDBRANCH   7   6
TORSDOF 4