REMARK  Name = 51331
REMARK  2 active torsions:
REMARK  status: ('A' for Active; 'I' for Inactive)
REMARK    1  A    between atoms: S_2  and  C_10
REMARK    2  A    between atoms: S_2  and  C_12
REMARK                            x       y       z     vdW  Elec       q    Type
REMARK                         _______ _______ _______ _____ _____    ______ ____
ROOT
ATOM      1  N   UNL     1      -6.870   3.100   0.000  0.00  0.00    -0.235 NA
ATOM      2  C   UNL     1      -8.169   2.350   0.000  0.00  0.00    +0.075 A 
ATOM      3  C   UNL     1      -8.169   0.851   0.000  0.00  0.00    +0.033 A 
ATOM      4  C   UNL     1      -6.870   0.101   0.000  0.00  0.00    +0.112 A 
ATOM      5  N   UNL     1      -5.571   0.851   0.000  0.00  0.00    -0.228 NA
ATOM     13  C   UNL     1      -9.468   0.101   0.000  0.00  0.00    +0.012 A 
ATOM     14  C   UNL     1     -10.767   0.851   0.000  0.00  0.00    +0.001 A 
ATOM     15  C   UNL     1     -10.767   2.350   0.000  0.00  0.00    +0.002 A 
ATOM     16  C   UNL     1      -9.468   3.100   0.000  0.00  0.00    +0.028 A 
ATOM     17  C   UNL     1      -5.571   2.350   0.000  0.00  0.00    +0.223 A 
ENDROOT
BRANCH   4   6
ATOM      6  S   UNL     1      -6.870  -1.400   0.000  0.00  0.00    -0.069 S 
BRANCH   6   7
ATOM      7  C   UNL     1      -5.571  -2.150   0.000  0.00  0.00    +0.014 A 
ATOM      8  C   UNL     1      -5.571  -3.650   0.000  0.00  0.00    +0.015 A 
ATOM      9  C   UNL     1      -4.272  -4.399   0.000  0.00  0.00    +0.001 A 
ATOM     10  C   UNL     1      -2.973  -3.650   0.000  0.00  0.00    +0.000 A 
ATOM     11  C   UNL     1      -2.973  -2.150   0.000  0.00  0.00    +0.001 A 
ATOM     12  C   UNL     1      -4.272  -1.400   0.000  0.00  0.00    +0.015 A 
ENDBRANCH   6   7
ENDBRANCH   4   6
TORSDOF 2