REMARK  Name = 91355
REMARK  8 active torsions:
REMARK  status: ('A' for Active; 'I' for Inactive)
REMARK    1  A    between atoms: N_2  and  C_24
REMARK    2  A    between atoms: N_3  and  C_5
REMARK    3  A    between atoms: C_9  and  C_25
REMARK    4  A    between atoms: C_15  and  O_20
REMARK    5  A    between atoms: O_20  and  C_21
REMARK    6  A    between atoms: C_21  and  C_22
REMARK    7  A    between atoms: C_22  and  O_23
REMARK    8  A    between atoms: C_22  and  C_24
REMARK                            x       y       z     vdW  Elec       q    Type
REMARK                         _______ _______ _______ _____ _____    ______ ____
ROOT
ATOM     11  C   UNL     1       5.471   7.024   0.000  0.00  0.00    +0.119 C 
ENDROOT
BRANCH  11  12
ATOM     12  N   UNL     1       6.770   7.774   0.000  0.00  0.00    -0.297 NA
ATOM     13  C   UNL     1       8.069   7.024   0.000  0.00  0.00    +0.103 C 
ATOM     14  C   UNL     1       9.368   7.774   0.000  0.00  0.00    +0.120 C 
ATOM     15  N   UNL     1       9.368   9.274   0.000  0.00  0.00    -0.327 N 
ATOM     16  C   UNL     1       8.069  10.025   0.000  0.00  0.00    +0.120 C 
ATOM     24  C   UNL     1       6.770   9.274   0.000  0.00  0.00    +0.103 C 
BRANCH  15  17
ATOM     17  C   UNL     1      10.667  10.025   0.000  0.00  0.00    +0.030 A 
ATOM     18  C   UNL     1      11.966   9.274   0.000  0.00  0.00    +0.026 A 
ATOM     19  C   UNL     1      13.265  10.025   0.000  0.00  0.00    -0.049 A 
ATOM     20  C   UNL     1      14.564   9.274   0.000  0.00  0.00    +0.044 C 
ATOM     21  C   UNL     1      13.265  11.525   0.000  0.00  0.00    +0.003 A 
ATOM     22  C   UNL     1      11.966  12.275   0.000  0.00  0.00    +0.002 A 
ATOM     23  C   UNL     1      10.667  11.525   0.000  0.00  0.00    +0.023 A 
ENDBRANCH  15  17
ENDBRANCH  11  12
BRANCH  11  10
ATOM     10  C   UNL     1       4.172   7.774   0.000  0.00  0.00    +0.166 C 
BRANCH  10  25
ATOM     25  O   UNL     1       4.172   9.274   0.000  0.00  0.00    -0.387 OA
ATOM     26  H   UNL     1       5.012   9.759   0.000  0.00  0.00    +0.210 HD
ENDBRANCH  10  25
BRANCH  10   9
ATOM      9  C   UNL     1       2.873   7.024   0.000  0.00  0.00    +0.261 C 
BRANCH   9   8
ATOM      8  O   UNL     1       2.873   5.524   0.000  0.00  0.00    -0.488 OA
BRANCH   8   7
ATOM      1 CL   UNL     1       2.873   2.525   0.000  0.00  0.00    -0.080 Cl
ATOM      2  C   UNL     1       1.574   3.275   0.000  0.00  0.00    +0.083 A 
ATOM      3  C   UNL     1       0.275   2.525   0.000  0.00  0.00    +0.023 A 
ATOM      4  C   UNL     1      -1.025   3.275   0.000  0.00  0.00    +0.002 A 
ATOM      5  C   UNL     1      -1.025   4.774   0.000  0.00  0.00    +0.004 A 
ATOM      6  C   UNL     1       0.275   5.524   0.000  0.00  0.00    +0.047 A 
ATOM      7  C   UNL     1       1.574   4.774   0.000  0.00  0.00    +0.139 A 
ENDBRANCH   8   7
ENDBRANCH   9   8
ENDBRANCH  10   9
ENDBRANCH  11  10
TORSDOF 7