REMARK  Name = 83961
REMARK  5 active torsions:
REMARK  status: ('A' for Active; 'I' for Inactive)
REMARK    1  A    between atoms: N_5  and  C_17
REMARK    2  A    between atoms: C_13  and  C_17
REMARK    3  A    between atoms: C_14  and  C_18
REMARK    4  A    between atoms: C_18  and  O_20
REMARK    5  A    between atoms: O_20  and  C_21
REMARK                            x       y       z     vdW  Elec       q    Type
REMARK                         _______ _______ _______ _____ _____    ______ ____
ROOT
ATOM      9  C   UNL     1       6.162  -1.991   0.000  0.00  0.00    +0.159 C 
ENDROOT
BRANCH   9   8
ATOM      1  N   UNL     1       1.674   1.400   0.000  0.00  0.00    -0.222 NA
ATOM      2  C   UNL     1       1.674  -0.101   0.000  0.00  0.00    +0.225 A 
ATOM      3  N   UNL     1       2.973  -0.851   0.000  0.00  0.00    -0.216 NA
ATOM      4  C   UNL     1       4.272  -0.101   0.000  0.00  0.00    +0.165 A 
ATOM      5  C   UNL     1       4.272   1.400   0.000  0.00  0.00    +0.145 A 
ATOM      6  N   UNL     1       5.699   1.863   0.000  0.00  0.00    -0.231 NA
ATOM      7  C   UNL     1       6.580   0.649   0.000  0.00  0.00    +0.202 A 
ATOM      8  N   UNL     1       5.699  -0.564   0.000  0.00  0.00    -0.311 N 
ATOM     20  C   UNL     1       2.973   2.150   0.000  0.00  0.00    +0.160 A 
ATOM     21 CL   UNL     1       2.973   3.650   0.000  0.00  0.00    -0.060 Cl
ENDBRANCH   9   8
BRANCH   9  10
ATOM     10  C   UNL     1       7.630  -2.303   0.000  0.00  0.00    -0.028 A 
ATOM     11  C   UNL     1       8.093  -3.729   0.000  0.00  0.00    +0.006 A 
ATOM     12  C   UNL     1       9.560  -4.041   0.000  0.00  0.00    +0.015 A 
ATOM     13  C   UNL     1      10.564  -2.926   0.000  0.00  0.00    +0.059 A 
ATOM     18  C   UNL     1      10.100  -1.500   0.000  0.00  0.00    +0.015 A 
ATOM     19  C   UNL     1       8.633  -1.188   0.000  0.00  0.00    +0.006 A 
BRANCH  13  14
ATOM     14  C   UNL     1      12.031  -3.238   0.000  0.00  0.00    +0.339 C 
ATOM     17  O   UNL     1      13.035  -2.123   0.000  0.00  0.00    -0.245 OA
BRANCH  14  15
ATOM     15  O   UNL     1      12.495  -4.665   0.000  0.00  0.00    -0.464 OA
ATOM     16  C   UNL     1      13.962  -4.976   0.000  0.00  0.00    +0.280 C 
ENDBRANCH  14  15
ENDBRANCH  13  14
ENDBRANCH   9  10
TORSDOF 4