REMARK  Name = 659107
REMARK  3 active torsions:
REMARK  status: ('A' for Active; 'I' for Inactive)
REMARK    1  A    between atoms: C_2  and  C_7
REMARK    2  A    between atoms: C_8  and  C_9
REMARK    3  A    between atoms: C_8  and  C_10
REMARK                            x       y       z     vdW  Elec       q    Type
REMARK                         _______ _______ _______ _____ _____    ______ ____
ROOT
ATOM      9  C   UNL     1      -4.174  -2.204   0.000  0.00  0.00    +0.032 C 
ATOM     10  C   UNL     1      -2.674  -2.204   0.000  0.00  0.00    +0.096 C 
ATOM     11  C   UNL     1      -1.793  -0.990   0.000  0.00  0.00    +0.264 C 
ATOM     12  N   UNL     1      -0.366  -1.454   0.000  0.00  0.00    -0.263 N 
ATOM     13  H   UNL     1       0.430  -0.875   0.000  0.00  0.00    +0.157 HD
ATOM     14  C   UNL     1      -0.366  -2.954   0.000  0.00  0.00    +0.141 C 
ATOM     15  S   UNL     1       0.848  -3.835   0.000  0.00  0.00    -0.018 S 
ATOM     16  O   UNL     1      -2.256   0.437   0.000  0.00  0.00    -0.268 OA
ATOM     17  N   UNL     1      -1.793  -3.417   0.000  0.00  0.00    -0.293 N 
ATOM     18  H   UNL     1      -2.097  -4.353   0.000  0.00  0.00    +0.154 HD
ENDROOT
BRANCH   9   8
ATOM      7  C   UNL     1      -4.174   0.395   0.000  0.00  0.00    +0.011 C 
ATOM      8  C   UNL     1      -4.924  -0.904   0.000  0.00  0.00    -0.048 C 
ATOM     19  C   UNL     1      -6.424  -0.904   0.000  0.00  0.00    +0.044 C 
BRANCH   7   6
ATOM      1  C   UNL     1      -1.924  -0.904   0.000  0.00  0.00    +0.008 A 
ATOM      2  C   UNL     1      -0.424  -0.904   0.000  0.00  0.00    +0.001 A 
ATOM      3  C   UNL     1       0.326   0.395   0.000  0.00  0.00    +0.000 A 
ATOM      4  C   UNL     1      -0.424   1.694   0.000  0.00  0.00    +0.001 A 
ATOM      5  C   UNL     1      -1.924   1.694   0.000  0.00  0.00    +0.008 A 
ATOM      6  C   UNL     1      -2.674   0.395   0.000  0.00  0.00    -0.025 A 
ENDBRANCH   7   6
ENDBRANCH   9   8
TORSDOF 2