REMARK  Name = 622689
REMARK  3 active torsions:
REMARK  status: ('A' for Active; 'I' for Inactive)
REMARK    1  A    between atoms: N_6  and  C_7
REMARK    2  A    between atoms: N_6  and  C_8
REMARK    3  A    between atoms: N_9  and  C_10
REMARK                            x       y       z     vdW  Elec       q    Type
REMARK                         _______ _______ _______ _____ _____    ______ ____
ROOT
ATOM      1 BR   UNL     1       6.371   5.523   0.000  0.00  0.00    -0.113 Br
ATOM      2  H   UNL     1       7.881   5.523   0.000  0.00  0.00    +0.113 HD
ENDROOT
TORSDOF 0