REMARK  Name = 62318
REMARK  3 active torsions:
REMARK  status: ('A' for Active; 'I' for Inactive)
REMARK    1  A    between atoms: N_6  and  C_12
REMARK    2  A    between atoms: C_12  and  C_13
REMARK    3  A    between atoms: C_12  and  C_14
REMARK                            x       y       z     vdW  Elec       q    Type
REMARK                         _______ _______ _______ _____ _____    ______ ____
ROOT
ATOM      1  N   UNL     1      -7.471   3.693   0.000  0.00  0.00    -0.228 NA
ATOM      2  C   UNL     1      -6.172   4.443   0.000  0.00  0.00    +0.138 A 
ATOM      3  C   UNL     1      -4.873   3.693   0.000  0.00  0.00    +0.139 A 
ATOM      4  C   UNL     1      -4.873   2.193   0.000  0.00  0.00    +0.142 A 
ATOM      5  N   UNL     1      -3.447   1.729   0.000  0.00  0.00    -0.314 N 
ATOM      9  C   UNL     1      -2.565   2.943   0.000  0.00  0.00    +0.201 A 
ATOM     10  N   UNL     1      -6.172   1.443   0.000  0.00  0.00    -0.330 N 
ATOM     11  H   UNL     1      -6.172  -0.057   0.000  0.00  0.00    +0.168 HD
ATOM     12  N   UNL     1      -3.447   4.156   0.000  0.00  0.00    -0.231 NA
ATOM     13  S   UNL     1      -6.172   5.943   0.000  0.00  0.00    -0.028 S 
ATOM     14  C   UNL     1      -7.471   2.193   0.000  0.00  0.00    +0.199 A 
ENDROOT
BRANCH   5   6
ATOM      6  C   UNL     1      -2.983   0.303   0.000  0.00  0.00    +0.084 C 
ATOM      7  C   UNL     1      -3.987  -0.812   0.000  0.00  0.00    +0.030 C 
ATOM      8  C   UNL     1      -1.516  -0.009   0.000  0.00  0.00    +0.030 C 
ENDBRANCH   5   6
TORSDOF 1