REMARK  Name = 645987
REMARK  4 active torsions:
REMARK  status: ('A' for Active; 'I' for Inactive)
REMARK    1  A    between atoms: O_1  and  C_2
REMARK    2  A    between atoms: C_4  and  N_5
REMARK    3  A    between atoms: C_10  and  O_11
REMARK    4  A    between atoms: C_13  and  N_14
REMARK                            x       y       z     vdW  Elec       q    Type
REMARK                         _______ _______ _______ _____ _____    ______ ____
ROOT
ATOM      3  C   UNL     1       3.573   7.429   0.000  0.00  0.00    +0.144 A 
ATOM      4  C   UNL     1       4.872   6.679   0.000  0.00  0.00    +0.110 A 
ATOM     10  C   UNL     1       4.872   5.179   0.000  0.00  0.00    +0.079 A 
ATOM     11  C   UNL     1       3.573   4.429   0.000  0.00  0.00    +0.144 A 
ATOM     14  C   UNL     1       2.273   5.179   0.000  0.00  0.00    +0.110 A 
ATOM     20  C   UNL     1       2.273   6.679   0.000  0.00  0.00    +0.079 A 
ENDROOT
BRANCH   4   5
ATOM      5  N   UNL     1       6.171   7.429   0.000  0.00  0.00    -0.236 N 
ATOM      6  N   UNL     1       6.327   8.920   0.000  0.00  0.00    -0.175 NA
ATOM      7  C   UNL     1       7.795   9.232   0.000  0.00  0.00    +0.135 A 
ATOM      8  C   UNL     1       8.545   7.933   0.000  0.00  0.00    +0.041 A 
ATOM      9  C   UNL     1       7.541   6.819   0.000  0.00  0.00    +0.114 A 
ENDBRANCH   4   5
BRANCH  14  15
ATOM     15  N   UNL     1       0.975   4.429   0.000  0.00  0.00    -0.236 N 
ATOM     16  N   UNL     1       0.818   2.937   0.000  0.00  0.00    -0.175 NA
ATOM     17  C   UNL     1      -0.649   2.625   0.000  0.00  0.00    +0.135 A 
ATOM     18  C   UNL     1      -1.400   3.924   0.000  0.00  0.00    +0.041 A 
ATOM     19  C   UNL     1      -0.396   5.039   0.000  0.00  0.00    +0.114 A 
ENDBRANCH  14  15
BRANCH   3   1
ATOM      1  O   UNL     1       3.573   8.929   0.000  0.00  0.00    -0.505 OA
ATOM      2  H   UNL     1       4.384   9.397   0.000  0.00  0.00    +0.292 HD
ENDBRANCH   3   1
BRANCH  11  12
ATOM     12  O   UNL     1       3.573   2.929   0.000  0.00  0.00    -0.505 OA
ATOM     13  H   UNL     1       2.761   2.460   0.000  0.00  0.00    +0.292 HD
ENDBRANCH  11  12
TORSDOF 4