REMARK  Name = 672441
REMARK  8 active torsions:
REMARK  status: ('A' for Active; 'I' for Inactive)
REMARK    1  A    between atoms: C_1  and  C_2
REMARK    2  A    between atoms: C_1  and  C_3
REMARK    3  A    between atoms: C_1  and  N_4
REMARK    4  A    between atoms: C_5  and  O_7
REMARK    5  A    between atoms: N_6  and  C_9
REMARK    6  A    between atoms: O_7  and  C_8
REMARK    7  A    between atoms: C_9  and  C_10
REMARK    8  A    between atoms: C_9  and  C_11
REMARK                            x       y       z     vdW  Elec       q    Type
REMARK                         _______ _______ _______ _____ _____    ______ ____
ROOT
ATOM      2  N   UNL     1       3.000   4.647   0.000  0.00  0.00    -0.297 N 
ATOM      3  H   UNL     1       3.492   5.500   0.000  0.00  0.00    +0.151 HD
ATOM      4  C   UNL     1       3.750   3.348   0.000  0.00  0.00    +0.278 C 
ATOM      7  N   UNL     1       5.250   3.348   0.000  0.00  0.00    -0.234 NA
ENDROOT
BRANCH   2   1
ATOM      1  C   UNL     1       1.500   4.647   0.000  0.00  0.00    +0.068 C 
ATOM     11  C   UNL     1       0.750   3.348   0.000  0.00  0.00    +0.027 C 
ATOM     12  C   UNL     1       0.750   5.946   0.000  0.00  0.00    +0.027 C 
ENDBRANCH   2   1
BRANCH   7   8
ATOM      8  C   UNL     1       6.000   4.647   0.000  0.00  0.00    +0.104 C 
ATOM      9  C   UNL     1       7.500   4.647   0.000  0.00  0.00    +0.032 C 
ATOM     10  C   UNL     1       5.250   5.946   0.000  0.00  0.00    +0.032 C 
ENDBRANCH   7   8
BRANCH   4   5
ATOM      5  O   UNL     1       3.000   2.049   0.000  0.00  0.00    -0.469 OA
ATOM      6  C   UNL     1       3.750   0.750   0.000  0.00  0.00    +0.280 C 
ENDBRANCH   4   5
TORSDOF 3