REMARK  Name = 622608
REMARK  4 active torsions:
REMARK  status: ('A' for Active; 'I' for Inactive)
REMARK    1  A    between atoms: N_1  and  C_2
REMARK    2  A    between atoms: N_1  and  C_3
REMARK    3  A    between atoms: N_9  and  C_10
REMARK    4  A    between atoms: C_10  and  C_11
REMARK                            x       y       z     vdW  Elec       q    Type
REMARK                         _______ _______ _______ _____ _____    ______ ____
ROOT
ATOM      1 BR   UNL     1      -6.225  -7.886   0.000  0.00  0.00    -0.113 Br
ATOM      2  H   UNL     1      -4.715  -7.886   0.000  0.00  0.00    +0.113 HD
ENDROOT
TORSDOF 0