REMARK  Name = 87008
REMARK  8 active torsions:
REMARK  status: ('A' for Active; 'I' for Inactive)
REMARK    1  A    between atoms: C_5  and  N_17
REMARK    2  A    between atoms: C_7  and  N_8
REMARK    3  A    between atoms: C_7  and  N_17
REMARK    4  A    between atoms: N_11  and  C_14
REMARK    5  A    between atoms: C_14  and  C_15
REMARK    6  A    between atoms: C_14  and  C_19
REMARK    7  A    between atoms: C_14  and  C_20
REMARK    8  A    between atoms: C_15  and  O_18
REMARK                            x       y       z     vdW  Elec       q    Type
REMARK                         _______ _______ _______ _____ _____    ______ ____
ROOT
ATOM      8  N   UNL     1      -4.821  -6.649   0.000  0.00  0.00    -0.310 N 
ATOM      9  C   UNL     1      -4.821  -5.149   0.000  0.00  0.00    +0.122 C 
ATOM     10  C   UNL     1      -3.522  -4.399   0.000  0.00  0.00    +0.104 C 
ATOM     11  N   UNL     1      -2.223  -5.149   0.000  0.00  0.00    -0.292 NA
ATOM     18  C   UNL     1      -2.223  -6.649   0.000  0.00  0.00    +0.104 C 
ATOM     19  C   UNL     1      -3.522  -7.399   0.000  0.00  0.00    +0.122 C 
ENDROOT
BRANCH  11  12
ATOM     12  C   UNL     1      -0.924  -4.399   0.000  0.00  0.00    +0.039 C 
ATOM     13  C   UNL     1      -1.674  -3.100   0.000  0.00  0.00    +0.030 C 
ATOM     14  C   UNL     1      -0.174  -3.100   0.000  0.00  0.00    +0.030 C 
BRANCH  12  15
ATOM     15  C   UNL     1       0.375  -5.149   0.000  0.00  0.00    +0.177 C 
BRANCH  15  16
ATOM     16  O   UNL     1       1.674  -4.399   0.000  0.00  0.00    -0.393 OA
ATOM     17  H   UNL     1       2.514  -4.884   0.000  0.00  0.00    +0.209 HD
ENDBRANCH  15  16
ENDBRANCH  12  15
ENDBRANCH  11  12
BRANCH   8   6
ATOM      6  C   UNL     1      -6.120  -7.399   0.000  0.00  0.00    +0.137 C 
ATOM      7  S   UNL     1      -6.120  -8.899   0.000  0.00  0.00    -0.018 S 
BRANCH   6   4
ATOM      4  N   UNL     1      -7.419  -6.649   0.000  0.00  0.00    -0.297 N 
ATOM      5  H   UNL     1      -7.419  -5.665   0.000  0.00  0.00    +0.154 HD
BRANCH   4   3
ATOM      1  C   UNL     1     -11.316  -7.399   0.000  0.00  0.00    +0.002 A 
ATOM      2  C   UNL     1     -10.017  -6.649   0.000  0.00  0.00    +0.023 A 
ATOM      3  C   UNL     1      -8.718  -7.399   0.000  0.00  0.00    +0.033 A 
ATOM     20  C   UNL     1      -8.718  -8.899   0.000  0.00  0.00    +0.023 A 
ATOM     21  C   UNL     1     -10.017  -9.649   0.000  0.00  0.00    +0.002 A 
ATOM     22  C   UNL     1     -11.316  -8.899   0.000  0.00  0.00    +0.000 A 
ENDBRANCH   4   3
ENDBRANCH   6   4
ENDBRANCH   8   6
TORSDOF 6