REMARK  Name = 92849
REMARK  2 active torsions:
REMARK  status: ('A' for Active; 'I' for Inactive)
REMARK    1  A    between atoms: C_7  and  C_18
REMARK    2  A    between atoms: C_11  and  C_19
REMARK                            x       y       z     vdW  Elec       q    Type
REMARK                         _______ _______ _______ _____ _____    ______ ____
ROOT
ATOM      1  O   UNL     1       0.711   4.816   0.000  0.00  0.00    -0.371 OA
ATOM      2  C   UNL     1       0.351   3.122   0.000  0.00  0.00    +0.135 C 
ATOM      3  C   UNL     1      -1.116   3.434   0.000  0.00  0.00    +0.035 C 
ATOM      4  C   UNL     1      -1.580   4.860   0.000  0.00  0.00    +0.035 C 
ATOM      5  C   UNL     1       1.355   4.237   0.000  0.00  0.00    +0.087 C 
ATOM      6  C   UNL     1       1.965   2.866   0.000  0.00  0.00    +0.024 C 
ATOM      7  C   UNL     1       2.854   4.237   0.000  0.00  0.00    +0.237 C 
ATOM      8  O   UNL     1       3.736   3.023   0.000  0.00  0.00    -0.274 OA
ATOM      9  N   UNL     1       3.318   5.663   0.000  0.00  0.00    -0.187 N 
ATOM     10  C   UNL     1       4.745   6.127   0.000  0.00  0.00    +0.174 A 
ATOM     11  S   UNL     1       5.958   5.245   0.000  0.00  0.00    -0.060 S 
ATOM     12  C   UNL     1       7.172   6.127   0.000  0.00  0.00    +0.068 A 
ATOM     13  C   UNL     1       6.708   7.553   0.000  0.00  0.00    +0.120 A 
ATOM     14  N   UNL     1       5.208   7.553   0.000  0.00  0.00    -0.233 NA
ATOM     15  C   UNL     1       2.104   6.545   0.000  0.00  0.00    +0.237 C 
ATOM     16  O   UNL     1       2.104   8.045   0.000  0.00  0.00    -0.274 OA
ATOM     17  C   UNL     1       0.891   5.663   0.000  0.00  0.00    +0.087 C 
ATOM     18  C   UNL     1       0.579   7.130   0.000  0.00  0.00    +0.024 C 
ATOM     19  C   UNL     1      -0.576   5.975   0.000  0.00  0.00    +0.135 C 
ENDROOT
TORSDOF 0