REMARK  Name = 89821
REMARK  10 active torsions:
REMARK  status: ('A' for Active; 'I' for Inactive)
REMARK    1  A    between atoms: C_8  and  C_28
REMARK    2  A    between atoms: C_9  and  C_27
REMARK    3  A    between atoms: C_14  and  N_24
REMARK    4  A    between atoms: C_16  and  C_23
REMARK    5  A    between atoms: C_18  and  C_21
REMARK    6  A    between atoms: C_18  and  C_22
REMARK    7  A    between atoms: C_22  and  C_23
REMARK    8  A    between atoms: N_24  and  C_25
REMARK    9  A    between atoms: C_25  and  C_26
REMARK   10  A    between atoms: C_26  and  C_27
REMARK                            x       y       z     vdW  Elec       q    Type
REMARK                         _______ _______ _______ _____ _____    ______ ____
ROOT
ATOM     12  N   UNL     1       3.002  -3.758   0.000  0.00  0.00    -0.344 N 
ATOM     13  H   UNL     1       3.213  -4.719   0.000  0.00  0.00    +0.146 HD
ENDROOT
BRANCH  12  11
ATOM      8  C   UNL     1      -1.286  -2.393   0.000  0.00  0.00    -0.047 A 
ATOM      9  C   UNL     1      -0.965  -3.858   0.000  0.00  0.00    +0.005 A 
ATOM     10  C   UNL     1       0.465  -4.313   0.000  0.00  0.00    +0.023 A 
ATOM     11  C   UNL     1       1.573  -3.303   0.000  0.00  0.00    +0.027 A 
ATOM     29  C   UNL     1       1.252  -1.837   0.000  0.00  0.00    +0.023 A 
ATOM     30  C   UNL     1      -0.177  -1.383   0.000  0.00  0.00    +0.005 A 
BRANCH   8   7
ATOM      7  C   UNL     1      -2.715  -1.938   0.000  0.00  0.00    +0.040 C 
BRANCH   7   6
ATOM      6  C   UNL     1      -2.777  -0.440   0.000  0.00  0.00    +0.071 C 
BRANCH   6   5
ATOM      1  O   UNL     1      -5.550   0.661   0.000  0.00  0.00    -0.345 OA
ATOM      2  C   UNL     1      -5.611   2.160   0.000  0.00  0.00    +0.191 C 
ATOM      3  C   UNL     1      -4.205   2.682   0.000  0.00  0.00    +0.191 C 
ATOM      4  O   UNL     1      -3.274   1.505   0.000  0.00  0.00    -0.345 OA
ATOM      5  C   UNL     1      -4.105   0.256   0.000  0.00  0.00    +0.184 C 
BRANCH   5  31
ATOM     31  C   UNL     1      -4.659  -1.138   0.000  0.00  0.00    +0.173 C 
ATOM     32 CL   UNL     1      -6.143  -1.356   0.000  0.00  0.00    -0.120 Cl
ENDBRANCH   5  31
ENDBRANCH   6   5
ENDBRANCH   7   6
ENDBRANCH   8   7
ENDBRANCH  12  11
BRANCH  12  14
ATOM     14  C   UNL     1       4.111  -2.747   0.000  0.00  0.00    +0.102 C 
BRANCH  14  15
ATOM     15  C   UNL     1       3.790  -1.282   0.000  0.00  0.00    +0.023 C 
BRANCH  15  16
ATOM     16  C   UNL     1       2.361  -0.827   0.000  0.00  0.00    +0.044 C 
BRANCH  16  17
ATOM     17  C   UNL     1       2.299   0.672   0.000  0.00  0.00    +0.038 A 
ATOM     18  C   UNL     1       0.971   1.368   0.000  0.00  0.00    +0.278 A 
ATOM     19  N   UNL     1       0.909   2.866   0.000  0.00  0.00    -0.177 NA
ATOM     20  C   UNL     1       2.176   3.669   0.000  0.00  0.00    +0.194 A 
ATOM     21  N   UNL     1       2.115   5.168   0.000  0.00  0.00    -0.329 N 
ATOM     22  H   UNL     1       1.243   5.625   0.000  0.00  0.00    +0.145 HD
ATOM     23  H   UNL     1       2.947   5.695   0.000  0.00  0.00    +0.145 HD
ATOM     24  N   UNL     1       3.505   2.973   0.000  0.00  0.00    -0.331 N 
ATOM     25  H   UNL     1       4.772   3.776   0.000  0.00  0.00    +0.168 HD
ATOM     26  O   UNL     1      -0.297   0.565   0.000  0.00  0.00    -0.265 OA
ATOM     27  C   UNL     1       3.567   1.474   0.000  0.00  0.00    +0.024 A 
ATOM     28  C   UNL     1       4.895   0.778   0.000  0.00  0.00    +0.064 C 
ENDBRANCH  16  17
ENDBRANCH  15  16
ENDBRANCH  14  15
ENDBRANCH  12  14
TORSDOF 9