REMARK  Name = 51936
REMARK  2 active torsions:
REMARK  status: ('A' for Active; 'I' for Inactive)
REMARK    1  A    between atoms: N_10  and  C_15
REMARK    2  A    between atoms: C_11  and  C_15
REMARK                            x       y       z     vdW  Elec       q    Type
REMARK                         _______ _______ _______ _____ _____    ______ ____
ROOT
ATOM      1  C   UNL     1       9.750   4.647   0.000  0.00  0.00    +0.179 C 
ATOM      2  O   UNL     1      10.500   3.348   0.000  0.00  0.00    -0.377 OA
ATOM      3  C   UNL     1       9.750   2.049   0.000  0.00  0.00    +0.179 C 
ATOM      4  C   UNL     1       8.250   2.049   0.000  0.00  0.00    +0.136 C 
ATOM      5  N   UNL     1       7.500   3.348   0.000  0.00  0.00    -0.296 N 
ATOM      6  C   UNL     1       6.000   3.348   0.000  0.00  0.00    +0.230 C 
ATOM     14  O   UNL     1       5.250   4.647   0.000  0.00  0.00    -0.274 OA
ATOM     15  C   UNL     1       8.250   4.647   0.000  0.00  0.00    +0.136 C 
ENDROOT
BRANCH   6   7
ATOM      7  C   UNL     1       5.250   2.049   0.000  0.00  0.00    +0.180 C 
BRANCH   7   8
ATOM      8  N   UNL     1       3.750   2.049   0.000  0.00  0.00    -0.290 NA
ATOM      9  C   UNL     1       3.000   0.750   0.000  0.00  0.00    +0.113 C 
ATOM     10  C   UNL     1       1.500   0.750   0.000  0.00  0.00    +0.175 C 
ATOM     11  O   UNL     1       0.750   2.049   0.000  0.00  0.00    -0.377 OA
ATOM     12  C   UNL     1       1.500   3.348   0.000  0.00  0.00    +0.175 C 
ATOM     13  C   UNL     1       3.000   3.348   0.000  0.00  0.00    +0.113 C 
ENDBRANCH   7   8
ENDBRANCH   6   7
TORSDOF 2