REMARK  Name = 45117
REMARK  3 active torsions:
REMARK  status: ('A' for Active; 'I' for Inactive)
REMARK    1  A    between atoms: N_2  and  C_12
REMARK    2  A    between atoms: C_3  and  C_11
REMARK    3  A    between atoms: C_12  and  C_13
REMARK                            x       y       z     vdW  Elec       q    Type
REMARK                         _______ _______ _______ _____ _____    ______ ____
ROOT
ATOM      1  O   UNL     1      -6.502  -2.201   0.000  0.00  0.00    -0.370 OA
ATOM      2  C   UNL     1      -7.368  -3.701   0.000  0.00  0.00    +0.124 C 
ATOM      3  C   UNL     1      -8.667  -2.951   0.000  0.00  0.00    +0.035 C 
ATOM      4  C   UNL     1      -8.667  -1.451   0.000  0.00  0.00    +0.037 C 
ATOM      5  C   UNL     1      -6.069  -2.951   0.000  0.00  0.00    +0.039 C 
ATOM      6  C   UNL     1      -4.642  -3.414   0.000  0.00  0.00    +0.090 C 
ATOM      7  N   UNL     1      -3.761  -2.201   0.000  0.00  0.00    -0.302 NA
ATOM     10  C   UNL     1      -4.642  -0.987   0.000  0.00  0.00    +0.091 C 
ATOM     11  C   UNL     1      -6.069  -1.451   0.000  0.00  0.00    +0.041 C 
ATOM     12  C   UNL     1      -7.368  -0.701   0.000  0.00  0.00    +0.072 C 
ATOM     13  C   UNL     1      -7.368   0.799   0.000  0.00  0.00    +0.042 C 
ENDROOT
BRANCH   7   8
ATOM      8  C   UNL     1      -2.261  -2.201   0.000  0.00  0.00    +0.081 C 
ATOM      9  C   UNL     1      -1.511  -3.500   0.000  0.00  0.00    +0.020 C 
ENDBRANCH   7   8
TORSDOF 1