REMARK  Name = 5856
REMARK  9 active torsions:
REMARK  status: ('A' for Active; 'I' for Inactive)
REMARK    1  A    between atoms: C_2  and  C_30
REMARK    2  A    between atoms: C_8  and  N_26
REMARK    3  A    between atoms: C_9  and  N_24
REMARK    4  A    between atoms: C_11  and  C_25
REMARK    5  A    between atoms: C_15  and  C_19
REMARK    6  A    between atoms: N_21  and  C_22
REMARK    7  A    between atoms: C_22  and  N_24
REMARK    8  A    between atoms: N_26  and  C_27
REMARK    9  A    between atoms: C_27  and  N_29
REMARK                            x       y       z     vdW  Elec       q    Type
REMARK                         _______ _______ _______ _____ _____    ______ ____
ROOT
ATOM     11  C   UNL     1      -3.623  -3.275   0.000  0.00  0.00    +0.034 A 
ATOM     12  C   UNL     1      -3.623  -4.774   0.000  0.00  0.00    +0.023 A 
ATOM     13  C   UNL     1      -4.922  -5.524   0.000  0.00  0.00    +0.007 A 
ATOM     14  C   UNL     1      -6.221  -4.774   0.000  0.00  0.00    -0.029 A 
ATOM     15  C   UNL     1      -7.520  -5.524   0.000  0.00  0.00    +0.045 C 
ATOM     16  C   UNL     1      -6.221  -3.275   0.000  0.00  0.00    +0.037 A 
ATOM     31  C   UNL     1      -4.922  -2.525   0.000  0.00  0.00    +0.046 A 
ENDROOT
BRANCH  11   9
ATOM      9  N   UNL     1      -2.324  -2.525   0.000  0.00  0.00    -0.297 N 
ATOM     10  H   UNL     1      -1.431  -2.941   0.000  0.00  0.00    +0.154 HD
BRANCH   9   7
ATOM      7  C   UNL     1      -2.584  -1.047   0.000  0.00  0.00    +0.141 C 
ATOM      8  S   UNL     1      -3.994  -0.534   0.000  0.00  0.00    -0.018 S 
BRANCH   7   5
ATOM      3  C   UNL     1      -0.025  -0.596   0.000  0.00  0.00    +0.250 C 
ATOM      4  O   UNL     1       1.124   0.368   0.000  0.00  0.00    -0.270 OA
ATOM      5  N   UNL     1      -1.435  -0.083   0.000  0.00  0.00    -0.264 N 
ATOM      6  H   UNL     1      -1.606   0.886   0.000  0.00  0.00    +0.157 HD
BRANCH   3   2
ATOM      1  C   UNL     1      -0.914  -3.038   0.000  0.00  0.00    +0.013 A 
ATOM      2  C   UNL     1       0.235  -2.073   0.000  0.00  0.00    +0.037 A 
ATOM     32  C   UNL     1       1.645  -2.586   0.000  0.00  0.00    +0.013 A 
ATOM     33  C   UNL     1       1.905  -4.064   0.000  0.00  0.00    +0.001 A 
ATOM     34  C   UNL     1       0.756  -5.028   0.000  0.00  0.00    +0.000 A 
ATOM     35  C   UNL     1      -0.653  -4.515   0.000  0.00  0.00    +0.001 A 
ENDBRANCH   3   2
ENDBRANCH   7   5
ENDBRANCH   9   7
ENDBRANCH  11   9
BRANCH  16  17
ATOM     17  N   UNL     1      -7.520  -2.525   0.000  0.00  0.00    -0.296 N 
ATOM     18  H   UNL     1      -7.520  -1.540   0.000  0.00  0.00    +0.154 HD
BRANCH  17  19
ATOM     19  C   UNL     1      -8.819  -3.275   0.000  0.00  0.00    +0.141 C 
ATOM     20  S   UNL     1      -8.819  -4.774   0.000  0.00  0.00    -0.018 S 
BRANCH  19  21
ATOM     21  N   UNL     1     -10.118  -2.525   0.000  0.00  0.00    -0.264 N 
ATOM     22  H   UNL     1     -10.204  -1.544   0.000  0.00  0.00    +0.157 HD
ATOM     23  C   UNL     1     -11.267  -3.489   0.000  0.00  0.00    +0.250 C 
ATOM     24  O   UNL     1     -12.676  -2.976   0.000  0.00  0.00    -0.270 OA
BRANCH  23  25
ATOM     25  C   UNL     1     -11.006  -4.966   0.000  0.00  0.00    +0.037 A 
ATOM     26  C   UNL     1      -9.597  -5.479   0.000  0.00  0.00    +0.013 A 
ATOM     27  C   UNL     1      -9.336  -6.956   0.000  0.00  0.00    +0.001 A 
ATOM     28  C   UNL     1     -10.486  -7.920   0.000  0.00  0.00    +0.000 A 
ATOM     29  C   UNL     1     -11.895  -7.407   0.000  0.00  0.00    +0.001 A 
ATOM     30  C   UNL     1     -12.156  -5.930   0.000  0.00  0.00    +0.013 A 
ENDBRANCH  23  25
ENDBRANCH  19  21
ENDBRANCH  17  19
ENDBRANCH  16  17
TORSDOF 8