REMARK  Name = 94600
REMARK  3 active torsions:
REMARK  status: ('A' for Active; 'I' for Inactive)
REMARK    1  A    between atoms: C_11  and  O_24
REMARK    2  A    between atoms: C_11  and  C_25
REMARK    3  A    between atoms: C_25  and  C_26
REMARK                            x       y       z     vdW  Elec       q    Type
REMARK                         _______ _______ _______ _____ _____    ______ ____
ROOT
ATOM      1  N   UNL     1       5.658  -1.102   0.000  0.00  0.00    -0.245 NA
ATOM      2  C   UNL     1       6.957  -0.352   0.000  0.00  0.00    +0.093 A 
ATOM      3  C   UNL     1       6.957   1.148   0.000  0.00  0.00    +0.000 A 
ATOM      4  C   UNL     1       5.658   1.898   0.000  0.00  0.00    +0.017 A 
ATOM      5  C   UNL     1       4.359   1.148   0.000  0.00  0.00    +0.001 A 
ATOM      6  C   UNL     1       3.060   1.898   0.000  0.00  0.00    +0.010 A 
ATOM      7  C   UNL     1       1.761   1.148   0.000  0.00  0.00    +0.001 A 
ATOM      8  C   UNL     1       1.761  -0.352   0.000  0.00  0.00    +0.002 A 
ATOM      9  C   UNL     1       3.060  -1.102   0.000  0.00  0.00    +0.028 A 
ATOM     10  C   UNL     1       8.384   1.611   0.000  0.00  0.00    +0.162 C 
ATOM     11  N   UNL     1       9.265   0.398   0.000  0.00  0.00    -0.302 N 
ATOM     12  C   UNL     1      10.757   0.241   0.000  0.00  0.00    +0.259 A 
ATOM     13  C   UNL     1      11.367  -1.129   0.000  0.00  0.00    +0.061 A 
ATOM     14  C   UNL     1      12.859  -1.286   0.000  0.00  0.00    +0.273 C 
ATOM     15  O   UNL     1      13.469  -2.656   0.000  0.00  0.00    -0.457 OA
ATOM     16  C   UNL     1      12.587  -3.870   0.000  0.00  0.00    +0.344 C 
ATOM     17  C   UNL     1      11.096  -3.713   0.000  0.00  0.00    +0.188 C 
ATOM     22  O   UNL     1      13.198  -5.240   0.000  0.00  0.00    -0.247 OA
ATOM     23  C   UNL     1      10.486  -2.343   0.000  0.00  0.00    +0.008 A 
ATOM     24  C   UNL     1       8.994  -2.186   0.000  0.00  0.00    +0.035 A 
ATOM     25  O   UNL     1      11.639   1.454   0.000  0.00  0.00    -0.267 OA
ATOM     26  C   UNL     1       8.384  -0.816   0.000  0.00  0.00    +0.071 A 
ATOM     27  C   UNL     1       4.359  -0.352   0.000  0.00  0.00    +0.072 A 
ENDROOT
BRANCH  17  18
ATOM     18  C   UNL     1      11.200  -5.210   0.000  0.00  0.00    +0.048 C 
ATOM     19  C   UNL     1      12.549  -5.867   0.000  0.00  0.00    +0.007 C 
ENDBRANCH  17  18
BRANCH  17  20
ATOM     20  O   UNL     1       9.640  -4.076   0.000  0.00  0.00    -0.373 OA
ATOM     21  H   UNL     1       8.966  -3.378   0.000  0.00  0.00    +0.211 HD
ENDBRANCH  17  20
TORSDOF 2