REMARK  Name = 58724
REMARK  2 active torsions:
REMARK  status: ('A' for Active; 'I' for Inactive)
REMARK    1  A    between atoms: N_3  and  N_19
REMARK    2  A    between atoms: C_14  and  N_19
REMARK                            x       y       z     vdW  Elec       q    Type
REMARK                         _______ _______ _______ _____ _____    ______ ____
ROOT
ATOM      1  O   UNL     1       0.499   5.136   0.000  0.00  0.00    -0.364 OA
ATOM      2  C   UNL     1      -0.367   3.636   0.000  0.00  0.00    +0.154 C 
ATOM      3  C   UNL     1      -1.666   4.386   0.000  0.00  0.00    +0.003 C 
ATOM      4  C   UNL     1      -1.666   5.886   0.000  0.00  0.00    +0.003 C 
ATOM      5  C   UNL     1       0.932   4.386   0.000  0.00  0.00    +0.124 C 
ATOM      6  C   UNL     1       2.359   3.922   0.000  0.00  0.00    +0.245 C 
ATOM      7  O   UNL     1       2.822   2.495   0.000  0.00  0.00    -0.273 OA
ATOM      8  N   UNL     1       3.240   5.136   0.000  0.00  0.00    -0.157 N 
ATOM     17  C   UNL     1       2.359   6.349   0.000  0.00  0.00    +0.245 C 
ATOM     18  O   UNL     1       2.822   7.776   0.000  0.00  0.00    -0.273 OA
ATOM     19  C   UNL     1       0.932   5.886   0.000  0.00  0.00    +0.124 C 
ATOM     20  C   UNL     1      -0.367   6.636   0.000  0.00  0.00    +0.154 C 
ENDROOT
BRANCH   8   9
ATOM      9  N   UNL     1       4.740   5.136   0.000  0.00  0.00    -0.255 N 
ATOM     10  H   UNL     1       5.305   5.942   0.000  0.00  0.00    +0.171 HD
BRANCH   9  11
ATOM     11  C   UNL     1       5.253   3.726   0.000  0.00  0.00    +0.045 A 
ATOM     12  C   UNL     1       4.289   2.577   0.000  0.00  0.00    +0.024 A 
ATOM     13  C   UNL     1       4.802   1.167   0.000  0.00  0.00    +0.002 A 
ATOM     14  C   UNL     1       6.279   0.907   0.000  0.00  0.00    +0.000 A 
ATOM     15  C   UNL     1       7.244   2.056   0.000  0.00  0.00    +0.002 A 
ATOM     16  C   UNL     1       6.731   3.466   0.000  0.00  0.00    +0.024 A 
ENDBRANCH   9  11
ENDBRANCH   8   9
TORSDOF 2