REMARK  Name = 76549
REMARK  4 active torsions:
REMARK  status: ('A' for Active; 'I' for Inactive)
REMARK    1  A    between atoms: C_4  and  C_17
REMARK    2  A    between atoms: C_9  and  N_16
REMARK    3  A    between atoms: C_10  and  C_15
REMARK    4  A    between atoms: C_12  and  N_14
REMARK                            x       y       z     vdW  Elec       q    Type
REMARK                         _______ _______ _______ _____ _____    ______ ____
ROOT
ATOM      1 CL   UNL     1      -9.468  -1.400   0.000  0.00  0.00    -0.082 Cl
ATOM      2  C   UNL     1      -9.468   0.101   0.000  0.00  0.00    +0.064 A 
ATOM      3  C   UNL     1     -10.767   0.851   0.000  0.00  0.00    +0.044 A 
ATOM      4  C   UNL     1     -10.767   2.350   0.000  0.00  0.00    +0.029 A 
ATOM      8  C   UNL     1      -9.468   3.100   0.000  0.00  0.00    -0.028 A 
ATOM      9  C   UNL     1      -9.468   4.601   0.000  0.00  0.00    +0.046 C 
ATOM     10  C   UNL     1      -8.169   2.350   0.000  0.00  0.00    +0.030 A 
ATOM     11  C   UNL     1      -8.169   0.851   0.000  0.00  0.00    +0.052 A 
ENDROOT
BRANCH  11  12
ATOM     12  N   UNL     1      -6.870   0.101   0.000  0.00  0.00    -0.280 N 
ATOM     13  H   UNL     1      -6.870  -0.884   0.000  0.00  0.00    +0.155 HD
ATOM     14  C   UNL     1      -5.571   0.851   0.000  0.00  0.00    +0.248 C 
ATOM     15  O   UNL     1      -5.571   2.350   0.000  0.00  0.00    -0.270 OA
BRANCH  14  16
ATOM     16  C   UNL     1      -4.272   0.101   0.000  0.00  0.00    +0.037 A 
ATOM     17  C   UNL     1      -4.272  -1.400   0.000  0.00  0.00    +0.013 A 
ATOM     18  C   UNL     1      -2.973  -2.150   0.000  0.00  0.00    +0.001 A 
ATOM     19  C   UNL     1      -1.674  -1.400   0.000  0.00  0.00    +0.000 A 
ATOM     20  C   UNL     1      -1.674   0.101   0.000  0.00  0.00    +0.001 A 
ATOM     21  C   UNL     1      -2.973   0.851   0.000  0.00  0.00    +0.013 A 
ENDBRANCH  14  16
ENDBRANCH  11  12
BRANCH   4   5
ATOM      5  N   UNL     1     -12.066   3.100   0.000  0.00  0.00    -0.358 N 
ATOM      6  H   UNL     1     -12.919   2.608   0.000  0.00  0.00    +0.142 HD
ATOM      7  H   UNL     1     -12.066   4.085   0.000  0.00  0.00    +0.142 HD
ENDBRANCH   4   5
TORSDOF 3