REMARK  Name = 87352
REMARK  5 active torsions:
REMARK  status: ('A' for Active; 'I' for Inactive)
REMARK    1  A    between atoms: O_1  and  C_4
REMARK    2  A    between atoms: O_1  and  C_12
REMARK    3  A    between atoms: C_6  and  S_9
REMARK    4  A    between atoms: C_8  and  S_9
REMARK    5  A    between atoms: C_12  and  C_13
REMARK                            x       y       z     vdW  Elec       q    Type
REMARK                         _______ _______ _______ _____ _____    ______ ____
ROOT
ATOM      5  C   UNL     1      -3.422  -4.574   0.000  0.00  0.00    +0.121 A 
ATOM      6  C   UNL     1      -3.422  -6.074   0.000  0.00  0.00    +0.047 A 
ATOM      7  C   UNL     1      -4.721  -6.824   0.000  0.00  0.00    +0.030 A 
ATOM      8  C   UNL     1      -6.020  -6.074   0.000  0.00  0.00    +0.088 A 
ATOM     13  C   UNL     1      -6.020  -4.574   0.000  0.00  0.00    +0.030 A 
ATOM     14  C   UNL     1      -4.721  -3.824   0.000  0.00  0.00    +0.047 A 
ENDROOT
BRANCH   8   9
ATOM      9  S   UNL     1      -7.319  -6.824   0.000  0.00  0.00    -0.006 S 
ATOM     10  O   UNL     1      -6.569  -8.123   0.000  0.00  0.00    -0.170 OA
ATOM     11  O   UNL     1      -8.069  -5.524   0.000  0.00  0.00    -0.170 OA
ATOM     12  C   UNL     1      -8.618  -7.574   0.000  0.00  0.00    +0.200 C 
ENDBRANCH   8   9
BRANCH   5   1
ATOM      1  O   UNL     1      -2.123  -3.824   0.000  0.00  0.00    -0.488 OA
BRANCH   1   2
ATOM      2  C   UNL     1      -0.824  -4.574   0.000  0.00  0.00    +0.256 C 
BRANCH   2   3
ATOM      3  C   UNL     1       0.475  -3.824   0.000  0.00  0.00    +0.006 C 
ATOM      4  C   UNL     1       0.475  -2.324   0.000  0.00  0.00    +0.007 C 
ENDBRANCH   2   3
ENDBRANCH   1   2
ENDBRANCH   5   1
TORSDOF 4