REMARK  Name = 43805
REMARK  3 active torsions:
REMARK  status: ('A' for Active; 'I' for Inactive)
REMARK    1  A    between atoms: N_2  and  C_9
REMARK    2  A    between atoms: C_3  and  N_6
REMARK    3  A    between atoms: C_4  and  N_10
REMARK                            x       y       z     vdW  Elec       q    Type
REMARK                         _______ _______ _______ _____ _____    ______ ____
ROOT
ATOM      1  N   UNL     1      -7.837   0.786   0.000  0.00  0.00    -0.168 NA
ATOM      2  C   UNL     1      -6.624   1.668   0.000  0.00  0.00    +0.425 A 
ATOM      6  C   UNL     1      -5.410   0.786   0.000  0.00  0.00    +0.274 A 
ATOM     15  N   UNL     1      -5.874  -0.641   0.000  0.00  0.00    -0.302 N 
ATOM     16  C   UNL     1      -4.992  -1.854   0.000  0.00  0.00    +0.153 C 
ATOM     17  C   UNL     1      -7.374  -0.641   0.000  0.00  0.00    +0.208 A 
ENDROOT
BRANCH   6   7
ATOM      7  N   UNL     1      -3.984   1.249   0.000  0.00  0.00    -0.222 N 
ATOM      8  H   UNL     1      -3.779   2.212   0.000  0.00  0.00    +0.267 HD
ATOM      9  C   UNL     1      -2.869   0.246   0.000  0.00  0.00    +0.382 C 
ATOM     10  N   UNL     1      -1.442   0.709   0.000  0.00  0.00    -0.129 NA
ATOM     11  H   UNL     1      -0.711   0.050   0.000  0.00  0.00    +0.306 HD
ATOM     12  N   UNL     1      -3.181  -1.222   0.000  0.00  0.00    -0.289 N 
ATOM     13  H   UNL     1      -2.449  -1.880   0.000  0.00  0.00    +0.255 HD
ATOM     14  H   UNL     1      -4.117  -1.526   0.000  0.00  0.00    +0.255 HD
ENDBRANCH   6   7
BRANCH   2   3
ATOM      3  N   UNL     1      -6.624   3.168   0.000  0.00  0.00    +0.106 N 
ATOM      4  O   UNL     1      -5.325   3.918   0.000  0.00  0.00    +0.043 OA
ATOM      5  O   UNL     1      -7.923   3.918   0.000  0.00  0.00    -0.575 OA
ENDBRANCH   2   3
TORSDOF 2