REMARK  Name = 46075
REMARK  5 active torsions:
REMARK  status: ('A' for Active; 'I' for Inactive)
REMARK    1  A    between atoms: C_10  and  C_11
REMARK    2  A    between atoms: C_20  and  C_21
REMARK    3  A    between atoms: C_20  and  C_23
REMARK    4  A    between atoms: C_21  and  C_22
REMARK    5  A    between atoms: N_25  and  C_26
REMARK                            x       y       z     vdW  Elec       q    Type
REMARK                         _______ _______ _______ _____ _____    ______ ____
ROOT
ATOM      1  O   UNL     1      -2.620  -5.129   0.000  0.00  0.00    -0.624 OA
ATOM      2  N   UNL     1      -1.684  -6.302   0.000  0.00  0.00    -0.191 N 
ATOM      3  C   UNL     1      -2.335  -7.653   0.000  0.00  0.00    +0.492 C 
ATOM      4  C   UNL     1      -1.684  -9.005   0.000  0.00  0.00    +0.363 C 
ATOM      5  N   UNL     1      -2.620 -10.177   0.000  0.00  0.00    -0.158 N 
ATOM      6  C   UNL     1      -2.072 -11.574   0.000  0.00  0.00    +0.286 C 
ATOM      7  C   UNL     1      -4.103  -9.954   0.000  0.00  0.00    +0.303 C 
ATOM      8  O   UNL     1      -4.651  -8.558   0.000  0.00  0.00    -0.248 OA
ATOM     12  N   UNL     1      -0.222  -9.338   0.000  0.00  0.00    -0.039 NA
ATOM     13  C   UNL     1       0.951  -8.403   0.000  0.00  0.00    +0.190 A 
ATOM     14  C   UNL     1       2.250  -9.153   0.000  0.00  0.00    +0.057 A 
ATOM     15  C   UNL     1       3.549  -8.403   0.000  0.00  0.00    +0.024 A 
ATOM     16  C   UNL     1       3.549  -6.903   0.000  0.00  0.00    +0.042 A 
ATOM     17  C   UNL     1       2.250  -6.153   0.000  0.00  0.00    +0.038 A 
ATOM     18 CL   UNL     1       4.848  -6.153   0.000  0.00  0.00    -0.084 Cl
ATOM     19  C   UNL     1       0.951  -6.903   0.000  0.00  0.00    +0.100 A 
ATOM     20  C   UNL     1      -0.222  -5.968   0.000  0.00  0.00    +0.233 C 
ENDROOT
BRANCH  20  21
ATOM     21  C   UNL     1       0.112  -4.506   0.000  0.00  0.00    +0.048 A 
ATOM     22  C   UNL     1      -0.988  -3.485   0.000  0.00  0.00    +0.014 A 
ATOM     23  C   UNL     1      -0.654  -2.023   0.000  0.00  0.00    +0.001 A 
ATOM     24  C   UNL     1       0.779  -1.581   0.000  0.00  0.00    +0.000 A 
ATOM     25  C   UNL     1       1.879  -2.601   0.000  0.00  0.00    +0.001 A 
ATOM     26  C   UNL     1       1.545  -4.064   0.000  0.00  0.00    +0.014 A 
ENDBRANCH  20  21
BRANCH   7   9
ATOM      9  C   UNL     1      -5.038 -11.127   0.000  0.00  0.00    +0.123 C 
BRANCH   9  10
ATOM     10  C   UNL     1      -6.521 -10.903   0.000  0.00  0.00    +0.008 C 
ATOM     11  C   UNL     1      -7.457 -12.076   0.000  0.00  0.00    +0.004 C 
ENDBRANCH   9  10
ENDBRANCH   7   9
TORSDOF 3