REMARK  Name = 6137
REMARK  2 active torsions:
REMARK  status: ('A' for Active; 'I' for Inactive)
REMARK    1  A    between atoms: C_3  and  C_11
REMARK    2  A    between atoms: C_11  and  O_14
REMARK                            x       y       z     vdW  Elec       q    Type
REMARK                         _______ _______ _______ _____ _____    ______ ____
ROOT
ATOM      1  C   UNL     1      -0.223   1.455   0.000  0.00  0.00    +0.150 C 
ATOM      2  C   UNL     1      -1.681   1.104   0.000  0.00  0.00    +0.129 C 
ATOM      3  C   UNL     1      -2.106  -0.334   0.000  0.00  0.00    +0.222 C 
ATOM      4  O   UNL     1      -1.246  -1.563   0.000  0.00  0.00    -0.457 OA
ATOM      5  C   UNL     1       0.251  -1.658   0.000  0.00  0.00    +0.314 C 
ATOM      6  O   UNL     1       1.389  -2.635   0.000  0.00  0.00    -0.250 OA
ATOM      7  C   UNL     1       0.096  -0.951   0.000  0.00  0.00    +0.146 C 
ATOM      8  C   UNL     1      -1.379  -0.678   0.000  0.00  0.00    +0.175 C 
ATOM      9 BR   UNL     1      -2.714   2.192   0.000  0.00  0.00    -0.081 Br
ATOM     10  C   UNL     1       0.811   0.368   0.000  0.00  0.00    +0.144 C 
ATOM     15  O   UNL     1      -1.576   0.809   0.000  0.00  0.00    -0.367 OA
ENDROOT
BRANCH  10  11
ATOM     11  C   UNL     1       2.298   0.565   0.000  0.00  0.00    +0.311 C 
ATOM     14  O   UNL     1       2.871   1.951   0.000  0.00  0.00    -0.251 OA
BRANCH  11  12
ATOM     12  O   UNL     1       3.212  -0.625   0.000  0.00  0.00    -0.480 OA
ATOM     13  H   UNL     1       2.854  -1.491   0.000  0.00  0.00    +0.295 HD
ENDBRANCH  11  12
ENDBRANCH  10  11
TORSDOF 2