REMARK  Name = 45086
REMARK  4 active torsions:
REMARK  status: ('A' for Active; 'I' for Inactive)
REMARK    1  A    between atoms: C_3  and  N_15
REMARK    2  A    between atoms: C_6  and  N_12
REMARK    3  A    between atoms: C_11  and  C_19
REMARK    4  A    between atoms: N_18  and  C_19
REMARK                            x       y       z     vdW  Elec       q    Type
REMARK                         _______ _______ _______ _____ _____    ______ ____
ROOT
ATOM      4  N   UNL     1       6.359   7.966   0.000  0.00  0.00    -0.292 N 
ATOM      5  H   UNL     1       6.188   8.935   0.000  0.00  0.00    +0.151 HD
ATOM      6  C   UNL     1       5.210   7.002   0.000  0.00  0.00    +0.304 C 
ATOM      7  O   UNL     1       3.801   7.515   0.000  0.00  0.00    -0.252 OA
ATOM      8  N   UNL     1       5.471   5.524   0.000  0.00  0.00    -0.269 N 
ATOM      9  H   UNL     1       6.363   5.108   0.000  0.00  0.00    +0.156 HD
ENDROOT
BRANCH   8  10
ATOM     10  C   UNL     1       4.172   4.774   0.000  0.00  0.00    +0.035 A 
ATOM     11  C   UNL     1       4.172   3.275   0.000  0.00  0.00    +0.030 A 
ATOM     12  C   UNL     1       2.873   2.525   0.000  0.00  0.00    +0.086 A 
ATOM     13  C   UNL     1       1.573   3.275   0.000  0.00  0.00    +0.273 A 
ATOM     17  C   UNL     1       1.574   4.774   0.000  0.00  0.00    +0.086 A 
ATOM     18  C   UNL     1       2.873   5.524   0.000  0.00  0.00    +0.030 A 
BRANCH  13  14
ATOM     14  N   UNL     1       0.275   2.525   0.000  0.00  0.00    +0.080 N 
ATOM     15  O   UNL     1       0.275   1.025   0.000  0.00  0.00    +0.041 OA
ATOM     16  O   UNL     1      -1.025   3.275   0.000  0.00  0.00    -0.576 OA
ENDBRANCH  13  14
ENDBRANCH   8  10
BRANCH   4   3
ATOM      3  C   UNL     1       7.769   7.453   0.000  0.00  0.00    +0.180 C 
BRANCH   3   2
ATOM      1  O   UNL     1       6.987   4.897   0.000  0.00  0.00    -0.466 OA
ATOM      2  C   UNL     1       8.029   5.976   0.000  0.00  0.00    +0.122 A 
ATOM     19  C   UNL     1       9.377   5.318   0.000  0.00  0.00    +0.046 A 
ATOM     20  C   UNL     1       9.169   3.833   0.000  0.00  0.00    +0.041 A 
ATOM     21  C   UNL     1       7.691   3.572   0.000  0.00  0.00    +0.195 A 
ENDBRANCH   3   2
ENDBRANCH   4   3
TORSDOF 4