REMARK  Name = 45572
REMARK  8 active torsions:
REMARK  status: ('A' for Active; 'I' for Inactive)
REMARK    1  A    between atoms: N_4  and  C_13
REMARK    2  A    between atoms: N_5  and  C_17
REMARK    3  A    between atoms: C_11  and  O_21
REMARK    4  A    between atoms: C_18  and  C_28
REMARK    5  A    between atoms: C_19  and  S_25
REMARK    6  A    between atoms: N_22  and  C_23
REMARK    7  A    between atoms: N_22  and  C_24
REMARK    8  A    between atoms: N_22  and  S_25
REMARK                            x       y       z     vdW  Elec       q    Type
REMARK                         _______ _______ _______ _____ _____    ______ ____
ROOT
ATOM     13  N   UNL     1      -1.083  -1.400   0.000  0.00  0.00    -0.140 NA
ATOM     14  N   UNL     1       0.386  -1.700   0.000  0.00  0.00    -0.147 NA
ENDROOT
BRANCH  13   4
ATOM      1  H   UNL     1      -6.012  -3.045   0.000  0.00  0.00    +0.169 HD
ATOM      2  N   UNL     1      -4.542  -3.345   0.000  0.00  0.00    -0.320 N 
ATOM      3  C   UNL     1      -3.548  -2.222   0.000  0.00  0.00    +0.280 A 
ATOM      4  C   UNL     1      -2.078  -2.522   0.000  0.00  0.00    +0.192 A 
ATOM      5  C   UNL     1      -1.603  -3.945   0.000  0.00  0.00    +0.158 A 
ATOM      8  C   UNL     1      -2.598  -5.068   0.000  0.00  0.00    +0.042 A 
ATOM      9  C   UNL     1      -2.123  -6.491   0.000  0.00  0.00    +0.013 A 
ATOM     10  C   UNL     1      -3.117  -7.613   0.000  0.00  0.00    +0.001 A 
ATOM     11  C   UNL     1      -4.587  -7.313   0.000  0.00  0.00    +0.002 A 
ATOM     12  C   UNL     1      -5.062  -5.891   0.000  0.00  0.00    +0.026 A 
ATOM     28  O   UNL     1      -4.023  -0.799   0.000  0.00  0.00    -0.265 OA
ATOM     29  C   UNL     1      -4.067  -4.768   0.000  0.00  0.00    +0.053 A 
BRANCH   5   6
ATOM      6  O   UNL     1      -0.133  -4.245   0.000  0.00  0.00    -0.504 OA
ATOM      7  H   UNL     1       0.163  -5.134   0.000  0.00  0.00    +0.292 HD
ENDBRANCH   5   6
ENDBRANCH  13   4
BRANCH  14  15
ATOM     15  C   UNL     1       1.561  -0.766   0.000  0.00  0.00    +0.112 A 
ATOM     16  C   UNL     1       2.956  -1.317   0.000  0.00  0.00    +0.133 A 
ATOM     23  C   UNL     1       4.131  -0.384   0.000  0.00  0.00    +0.034 A 
ATOM     24  C   UNL     1       3.910   1.099   0.000  0.00  0.00    -0.048 A 
ATOM     25  C   UNL     1       5.084   2.033   0.000  0.00  0.00    +0.044 C 
ATOM     26  C   UNL     1       2.515   1.650   0.000  0.00  0.00    +0.005 A 
ATOM     27  C   UNL     1       1.340   0.717   0.000  0.00  0.00    +0.032 A 
BRANCH  16  17
ATOM     17  S   UNL     1       3.177  -2.801   0.000  0.00  0.00    +0.062 S 
ATOM     18  O   UNL     1       4.660  -2.580   0.000  0.00  0.00    -0.153 OA
ATOM     19  O   UNL     1       1.693  -3.022   0.000  0.00  0.00    -0.153 OA
BRANCH  17  20
ATOM     20  N   UNL     1       3.398  -4.285   0.000  0.00  0.00    -0.183 NA
ATOM     21  C   UNL     1       4.793  -4.835   0.000  0.00  0.00    +0.131 C 
ATOM     22  C   UNL     1       2.223  -5.218   0.000  0.00  0.00    +0.131 C 
ENDBRANCH  17  20
ENDBRANCH  16  17
ENDBRANCH  14  15
TORSDOF 5