REMARK  Name = 68971
REMARK  6 active torsions:
REMARK  status: ('A' for Active; 'I' for Inactive)
REMARK    1  A    between atoms: C_3  and  O_20
REMARK    2  A    between atoms: C_8  and  N_17
REMARK    3  A    between atoms: C_9  and  C_13
REMARK    4  A    between atoms: C_11  and  O_16
REMARK    5  A    between atoms: C_13  and  O_15
REMARK    6  A    between atoms: C_18  and  O_20
REMARK                            x       y       z     vdW  Elec       q    Type
REMARK                         _______ _______ _______ _____ _____    ______ ____
ROOT
ATOM      8  C   UNL     1       1.025   4.774   0.000  0.00  0.00    +0.037 A 
ATOM      9  C   UNL     1       1.025   3.275   0.000  0.00  0.00    +0.027 A 
ATOM     10  C   UNL     1      -0.275   2.525   0.000  0.00  0.00    +0.048 A 
ATOM     11  C   UNL     1      -1.574   3.275   0.000  0.00  0.00    +0.131 A 
ATOM     14  C   UNL     1      -1.574   4.774   0.000  0.00  0.00    +0.102 A 
ATOM     19  C   UNL     1      -0.275   5.524   0.000  0.00  0.00    +0.042 A 
ENDROOT
BRANCH   8   6
ATOM      4  C   UNL     1       2.324   7.024   0.000  0.00  0.00    +0.410 C 
ATOM      5  O   UNL     1       3.623   7.774   0.000  0.00  0.00    -0.226 OA
ATOM      6  N   UNL     1       2.324   5.524   0.000  0.00  0.00    -0.251 N 
ATOM      7  H   UNL     1       3.176   5.032   0.000  0.00  0.00    +0.158 HD
BRANCH   4   3
ATOM      3  O   UNL     1       1.025   7.774   0.000  0.00  0.00    -0.411 OA
BRANCH   3   2
ATOM      1  C   UNL     1      -0.275  10.025   0.000  0.00  0.00    +0.046 A 
ATOM      2  C   UNL     1       1.025   9.274   0.000  0.00  0.00    +0.133 A 
ATOM     20  C   UNL     1       2.324  10.025   0.000  0.00  0.00    +0.046 A 
ATOM     21  C   UNL     1       2.324  11.525   0.000  0.00  0.00    +0.004 A 
ATOM     22  C   UNL     1       1.025  12.275   0.000  0.00  0.00    +0.000 A 
ATOM     23  C   UNL     1      -0.275  11.525   0.000  0.00  0.00    +0.004 A 
ENDBRANCH   3   2
ENDBRANCH   4   3
ENDBRANCH   8   6
BRANCH  11  12
ATOM     12  O   UNL     1      -2.873   2.525   0.000  0.00  0.00    -0.506 OA
ATOM     13  H   UNL     1      -3.684   2.993   0.000  0.00  0.00    +0.292 HD
ENDBRANCH  11  12
BRANCH  14  15
ATOM     15  C   UNL     1      -2.873   5.524   0.000  0.00  0.00    +0.340 C 
ATOM     18  O   UNL     1      -4.172   4.774   0.000  0.00  0.00    -0.245 OA
BRANCH  15  16
ATOM     16  O   UNL     1      -2.873   7.024   0.000  0.00  0.00    -0.477 OA
ATOM     17  H   UNL     1      -2.061   7.493   0.000  0.00  0.00    +0.295 HD
ENDBRANCH  15  16
ENDBRANCH  14  15
TORSDOF 6