REMARK  Name = 79582
REMARK  0 active torsions:
REMARK  status: ('A' for Active; 'I' for Inactive)
REMARK                            x       y       z     vdW  Elec       q    Type
REMARK                         _______ _______ _______ _____ _____    ______ ____
ROOT
ATOM      1  C   UNL     1       0.750   2.049   0.000  0.00  0.00    +0.007 A 
ATOM      2  C   UNL     1       1.500   0.750   0.000  0.00  0.00    +0.001 A 
ATOM      3  C   UNL     1       3.000   0.750   0.000  0.00  0.00    +0.015 A 
ATOM      4  C   UNL     1       3.750   2.049   0.000  0.00  0.00    +0.059 A 
ATOM      5  C   UNL     1       5.250   2.049   0.000  0.00  0.00    +0.020 A 
ATOM      6  C   UNL     1       6.000   0.750   0.000  0.00  0.00    +0.011 A 
ATOM      7  C   UNL     1       7.500   0.750   0.000  0.00  0.00    +0.001 A 
ATOM      8  C   UNL     1       8.250   2.049   0.000  0.00  0.00    +0.002 A 
ATOM      9  C   UNL     1       7.500   3.348   0.000  0.00  0.00    +0.034 A 
ATOM     10  C   UNL     1       6.000   3.348   0.000  0.00  0.00    +0.140 A 
ATOM     11  N   UNL     1       5.250   4.647   0.000  0.00  0.00    +0.016 NA
ATOM     12  N   UNL     1       3.750   4.647   0.000  0.00  0.00    -0.047 N 
ATOM     13  O   UNL     1       3.000   5.946   0.000  0.00  0.00    -0.595 OA
ATOM     14  C   UNL     1       3.000   3.348   0.000  0.00  0.00    +0.255 A 
ATOM     15  C   UNL     1       1.500   3.348   0.000  0.00  0.00    +0.082 A 
ENDROOT
TORSDOF 0