REMARK  Name = 9037
REMARK  5 active torsions:
REMARK  status: ('A' for Active; 'I' for Inactive)
REMARK    1  A    between atoms: C_6  and  O_24
REMARK    2  A    between atoms: C_8  and  C_9
REMARK    3  A    between atoms: C_12  and  O_25
REMARK    4  A    between atoms: C_15  and  O_22
REMARK    5  A    between atoms: C_19  and  O_23
REMARK                            x       y       z     vdW  Elec       q    Type
REMARK                         _______ _______ _______ _____ _____    ______ ____
ROOT
ATOM      1  O   UNL     1       5.946   0.750   0.000  0.00  0.00    -0.455 OA
ATOM      2  C   UNL     1       4.647   1.500   0.000  0.00  0.00    +0.140 A 
ATOM      3  C   UNL     1       3.348   0.750   0.000  0.00  0.00    +0.096 A 
ATOM      4  C   UNL     1       2.049   1.500   0.000  0.00  0.00    +0.162 A 
ATOM      7  C   UNL     1       2.049   3.000   0.000  0.00  0.00    +0.159 A 
ATOM     10  C   UNL     1       3.348   3.750   0.000  0.00  0.00    +0.061 A 
ATOM     11  C   UNL     1       4.647   3.000   0.000  0.00  0.00    +0.029 A 
ATOM     12  C   UNL     1       5.946   3.750   0.000  0.00  0.00    +0.007 A 
ATOM     13  C   UNL     1       7.245   3.000   0.000  0.00  0.00    +0.029 A 
ATOM     14  C   UNL     1       8.544   3.750   0.000  0.00  0.00    +0.061 A 
ATOM     15  C   UNL     1       9.843   3.000   0.000  0.00  0.00    +0.164 A 
ATOM     18  C   UNL     1       9.843   1.500   0.000  0.00  0.00    +0.224 A 
ATOM     19  C   UNL     1       8.544   0.750   0.000  0.00  0.00    +0.101 A 
ATOM     20  O   UNL     1      11.142   0.750   0.000  0.00  0.00    -0.284 OA
ATOM     29  C   UNL     1       7.245   1.500   0.000  0.00  0.00    +0.140 A 
ENDROOT
BRANCH  12  21
ATOM     21  C   UNL     1       5.946   5.250   0.000  0.00  0.00    +0.025 A 
ATOM     22  C   UNL     1       4.647   6.000   0.000  0.00  0.00    +0.012 A 
ATOM     23  C   UNL     1       4.647   7.500   0.000  0.00  0.00    +0.001 A 
ATOM     24  C   UNL     1       5.946   8.250   0.000  0.00  0.00    +0.004 A 
ATOM     25  C   UNL     1       7.245   7.500   0.000  0.00  0.00    +0.046 A 
ATOM     26  C   UNL     1       7.245   6.000   0.000  0.00  0.00    +0.125 A 
BRANCH  26  27
ATOM     27  O   UNL     1       8.544   5.250   0.000  0.00  0.00    -0.506 OA
ATOM     28  H   UNL     1       8.544   4.313   0.000  0.00  0.00    +0.292 HD
ENDBRANCH  26  27
ENDBRANCH  12  21
BRANCH   4   5
ATOM      5  O   UNL     1       0.750   0.750   0.000  0.00  0.00    -0.503 OA
ATOM      6  H   UNL     1      -0.061   1.218   0.000  0.00  0.00    +0.292 HD
ENDBRANCH   4   5
BRANCH   7   8
ATOM      8  O   UNL     1       0.750   3.750   0.000  0.00  0.00    -0.503 OA
ATOM      9  H   UNL     1       0.750   4.687   0.000  0.00  0.00    +0.292 HD
ENDBRANCH   7   8
BRANCH  15  16
ATOM     16  O   UNL     1      11.142   3.750   0.000  0.00  0.00    -0.503 OA
ATOM     17  H   UNL     1      11.954   3.282   0.000  0.00  0.00    +0.292 HD
ENDBRANCH  15  16
TORSDOF 5