REMARK  Name = 61888
REMARK  2 active torsions:
REMARK  status: ('A' for Active; 'I' for Inactive)
REMARK    1  A    between atoms: C_13  and  C_16
REMARK    2  A    between atoms: C_14  and  C_15
REMARK                            x       y       z     vdW  Elec       q    Type
REMARK                         _______ _______ _______ _____ _____    ______ ____
ROOT
ATOM      1  N   UNL     1       4.647   2.250   0.000  0.00  0.00    -0.246 NA
ATOM      2  C   UNL     1       5.946   3.000   0.000  0.00  0.00    +0.075 A 
ATOM      3  C   UNL     1       7.245   2.250   0.000  0.00  0.00    -0.024 A 
ATOM      4  C   UNL     1       7.245   0.750   0.000  0.00  0.00    +0.046 C 
ATOM      5  C   UNL     1       8.544   3.000   0.000  0.00  0.00    +0.005 A 
ATOM      6  C   UNL     1       8.544   4.500   0.000  0.00  0.00    +0.001 A 
ATOM      7  C   UNL     1       7.245   5.250   0.000  0.00  0.00    +0.010 A 
ATOM      8  C   UNL     1       5.946   4.500   0.000  0.00  0.00    +0.001 A 
ATOM      9  C   UNL     1       4.647   5.250   0.000  0.00  0.00    +0.020 A 
ATOM     10  C   UNL     1       3.348   4.500   0.000  0.00  0.00    +0.001 A 
ATOM     11  C   UNL     1       2.049   5.250   0.000  0.00  0.00    +0.010 A 
ATOM     12  C   UNL     1       0.750   4.500   0.000  0.00  0.00    +0.001 A 
ATOM     13  C   UNL     1       0.750   3.000   0.000  0.00  0.00    +0.005 A 
ATOM     14  C   UNL     1       2.049   2.250   0.000  0.00  0.00    -0.024 A 
ATOM     15  C   UNL     1       2.049   0.750   0.000  0.00  0.00    +0.046 C 
ATOM     16  C   UNL     1       3.348   3.000   0.000  0.00  0.00    +0.075 A 
ENDROOT
TORSDOF 0