REMARK  Name = 47522
REMARK  2 active torsions:
REMARK  status: ('A' for Active; 'I' for Inactive)
REMARK    1  A    between atoms: C_7  and  N_16
REMARK    2  A    between atoms: C_12  and  N_16
REMARK                            x       y       z     vdW  Elec       q    Type
REMARK                         _______ _______ _______ _____ _____    ______ ____
ROOT
ATOM      1 CL   UNL     1      -4.172   6.274   0.000  0.00  0.00    -0.062 Cl
ATOM      2  C   UNL     1      -2.873   5.524   0.000  0.00  0.00    +0.136 A 
ATOM      3  C   UNL     1      -1.574   6.274   0.000  0.00  0.00    +0.084 A 
ATOM      4  C   UNL     1      -0.275   5.524   0.000  0.00  0.00    +0.129 A 
ATOM     14  N   UNL     1      -0.275   4.024   0.000  0.00  0.00    -0.200 NA
ATOM     15  C   UNL     1      -1.574   3.275   0.000  0.00  0.00    +0.216 A 
ATOM     16  N   UNL     1      -1.573   1.775   0.000  0.00  0.00    -0.327 N 
ATOM     17  H   UNL     1      -0.721   1.282   0.000  0.00  0.00    +0.145 HD
ATOM     18  H   UNL     1      -2.426   1.282   0.000  0.00  0.00    +0.145 HD
ATOM     19  N   UNL     1      -2.873   4.024   0.000  0.00  0.00    -0.203 NA
ENDROOT
BRANCH   4   5
ATOM      5  N   UNL     1       1.025   6.274   0.000  0.00  0.00    -0.298 N 
ATOM      6  H   UNL     1       1.877   5.782   0.000  0.00  0.00    +0.154 HD
BRANCH   5   7
ATOM      7  C   UNL     1       1.025   7.774   0.000  0.00  0.00    +0.051 A 
ATOM      8  C   UNL     1       2.324   8.524   0.000  0.00  0.00    +0.062 A 
ATOM      9  C   UNL     1       2.324  10.025   0.000  0.00  0.00    +0.022 A 
ATOM     10  C   UNL     1       1.025  10.775   0.000  0.00  0.00    +0.002 A 
ATOM     11  C   UNL     1      -0.275  10.025   0.000  0.00  0.00    +0.002 A 
ATOM     12 CL   UNL     1       3.623   7.774   0.000  0.00  0.00    -0.082 Cl
ATOM     13  C   UNL     1      -0.275   8.524   0.000  0.00  0.00    +0.025 A 
ENDBRANCH   5   7
ENDBRANCH   4   5
TORSDOF 2