REMARK  Name = 80731
REMARK  6 active torsions:
REMARK  status: ('A' for Active; 'I' for Inactive)
REMARK    1  A    between atoms: O_2  and  C_14
REMARK    2  A    between atoms: O_2  and  C_18
REMARK    3  A    between atoms: C_5  and  N_35
REMARK    4  A    between atoms: C_11  and  N_32
REMARK    5  A    between atoms: C_20  and  N_31
REMARK    6  A    between atoms: C_24  and  N_28
REMARK                            x       y       z     vdW  Elec       q    Type
REMARK                         _______ _______ _______ _____ _____    ______ ____
ROOT
ATOM     18  O   UNL     1      -4.922 -10.025   0.000  0.00  0.00    -0.456 OA
ENDROOT
BRANCH  18  16
ATOM     13  C   UNL     1      -1.025  -7.774   0.000  0.00  0.00    +0.035 A 
ATOM     14  C   UNL     1      -2.324  -7.024   0.000  0.00  0.00    +0.027 A 
ATOM     15  C   UNL     1      -3.623  -7.774   0.000  0.00  0.00    +0.048 A 
ATOM     16  C   UNL     1      -3.623  -9.274   0.000  0.00  0.00    +0.129 A 
ATOM     17  C   UNL     1      -2.324 -10.025   0.000  0.00  0.00    +0.048 A 
ATOM     38  C   UNL     1      -1.025  -9.274   0.000  0.00  0.00    +0.027 A 
BRANCH  13  11
ATOM      8  N   UNL     1       1.573  -4.774   0.000  0.00  0.00    -0.268 N 
ATOM      9  H   UNL     1       1.573  -3.790   0.000  0.00  0.00    +0.156 HD
ATOM     10  C   UNL     1       0.275  -5.524   0.000  0.00  0.00    +0.308 C 
ATOM     11  N   UNL     1       0.275  -7.024   0.000  0.00  0.00    -0.269 N 
ATOM     12  H   UNL     1       1.127  -7.517   0.000  0.00  0.00    +0.156 HD
ATOM     39  O   UNL     1      -1.025  -4.774   0.000  0.00  0.00    -0.252 OA
BRANCH   8   7
ATOM      1 CL   UNL     1       4.172  -3.275   0.000  0.00  0.00    -0.082 Cl
ATOM      2  C   UNL     1       4.172  -4.774   0.000  0.00  0.00    +0.062 A 
ATOM      3  C   UNL     1       5.471  -5.524   0.000  0.00  0.00    +0.022 A 
ATOM      4  C   UNL     1       5.471  -7.024   0.000  0.00  0.00    +0.002 A 
ATOM      5  C   UNL     1       4.172  -7.774   0.000  0.00  0.00    +0.002 A 
ATOM      6  C   UNL     1       2.873  -7.024   0.000  0.00  0.00    +0.025 A 
ATOM      7  C   UNL     1       2.873  -5.524   0.000  0.00  0.00    +0.053 A 
ENDBRANCH   8   7
ENDBRANCH  13  11
ENDBRANCH  18  16
BRANCH  18  19
ATOM     19  C   UNL     1      -4.922 -11.525   0.000  0.00  0.00    +0.129 A 
ATOM     20  C   UNL     1      -6.221 -12.275   0.000  0.00  0.00    +0.048 A 
ATOM     21  C   UNL     1      -6.221 -13.775   0.000  0.00  0.00    +0.027 A 
ATOM     22  C   UNL     1      -4.922 -14.525   0.000  0.00  0.00    +0.035 A 
ATOM     36  C   UNL     1      -3.623 -13.775   0.000  0.00  0.00    +0.027 A 
ATOM     37  C   UNL     1      -3.623 -12.275   0.000  0.00  0.00    +0.048 A 
BRANCH  22  23
ATOM     23  N   UNL     1      -4.922 -16.025   0.000  0.00  0.00    -0.269 N 
ATOM     24  H   UNL     1      -5.774 -16.517   0.000  0.00  0.00    +0.156 HD
ATOM     25  C   UNL     1      -3.623 -16.775   0.000  0.00  0.00    +0.308 C 
ATOM     26  N   UNL     1      -2.324 -16.025   0.000  0.00  0.00    -0.268 N 
ATOM     27  H   UNL     1      -2.323 -15.040   0.000  0.00  0.00    +0.156 HD
ATOM     35  O   UNL     1      -3.623 -18.275   0.000  0.00  0.00    -0.252 OA
BRANCH  26  28
ATOM     28  C   UNL     1      -1.025 -16.775   0.000  0.00  0.00    +0.053 A 
ATOM     29  C   UNL     1      -1.025 -18.275   0.000  0.00  0.00    +0.062 A 
ATOM     30  C   UNL     1       0.275 -19.025   0.000  0.00  0.00    +0.022 A 
ATOM     31  C   UNL     1       1.574 -18.275   0.000  0.00  0.00    +0.002 A 
ATOM     32  C   UNL     1       1.574 -16.775   0.000  0.00  0.00    +0.002 A 
ATOM     33 CL   UNL     1      -2.324 -19.025   0.000  0.00  0.00    -0.082 Cl
ATOM     34  C   UNL     1       0.275 -16.025   0.000  0.00  0.00    +0.025 A 
ENDBRANCH  26  28
ENDBRANCH  22  23
ENDBRANCH  18  19
TORSDOF 6