REMARK  Name = 60339
REMARK  6 active torsions:
REMARK  status: ('A' for Active; 'I' for Inactive)
REMARK    1  A    between atoms: C_10  and  N_37
REMARK    2  A    between atoms: C_11  and  C_13
REMARK    3  A    between atoms: C_16  and  C_35
REMARK    4  A    between atoms: C_19  and  C_33
REMARK    5  A    between atoms: C_22  and  N_32
REMARK    6  A    between atoms: C_25  and  C_27
REMARK                            x       y       z     vdW  Elec       q    Type
REMARK                         _______ _______ _______ _____ _____    ______ ____
ROOT
ATOM     15  C   UNL     1     -14.065   4.255   0.000  0.00  0.00    +0.055 A 
ATOM     16  C   UNL     1     -14.065   2.755   0.000  0.00  0.00    +0.015 A 
ATOM     17  C   UNL     1     -12.766   2.005   0.000  0.00  0.00    +0.014 A 
ATOM     18  C   UNL     1     -11.467   2.755   0.000  0.00  0.00    +0.038 A 
ATOM     35  C   UNL     1     -11.467   4.255   0.000  0.00  0.00    +0.033 A 
ATOM     36  C   UNL     1     -12.766   5.005   0.000  0.00  0.00    +0.054 A 
ATOM     37 CL   UNL     1     -12.766   6.505   0.000  0.00  0.00    -0.083 Cl
ENDROOT
BRANCH  15  13
ATOM     11  N   UNL     1     -16.663   4.255   0.000  0.00  0.00    -0.281 N 
ATOM     12  H   UNL     1     -16.664   3.270   0.000  0.00  0.00    +0.155 HD
ATOM     13  C   UNL     1     -15.364   5.005   0.000  0.00  0.00    +0.250 C 
ATOM     14  O   UNL     1     -15.364   6.505   0.000  0.00  0.00    -0.270 OA
BRANCH  11  10
ATOM      7  C   UNL     1     -20.561   6.505   0.000  0.00  0.00    +0.065 A 
ATOM      8  C   UNL     1     -20.561   5.005   0.000  0.00  0.00    +0.018 A 
ATOM      9  C   UNL     1     -19.262   4.255   0.000  0.00  0.00    +0.024 A 
ATOM     10  C   UNL     1     -17.962   5.005   0.000  0.00  0.00    +0.034 A 
ATOM     38  C   UNL     1     -17.962   6.505   0.000  0.00  0.00    +0.024 A 
ATOM     39  C   UNL     1     -19.262   7.255   0.000  0.00  0.00    +0.018 A 
BRANCH   7   6
ATOM      1  H   UNL     1     -20.902   9.750   0.000  0.00  0.00    +0.291 HD
ATOM      2  N   UNL     1     -22.016   8.746   0.000  0.00  0.00    -0.230 N 
ATOM      3  C   UNL     1     -23.484   9.058   0.000  0.00  0.00    +0.273 C 
ATOM      4  C   UNL     1     -24.234   7.759   0.000  0.00  0.00    +0.333 C 
ATOM      5  N   UNL     1     -23.230   6.644   0.000  0.00  0.00    -0.079 NA
ATOM      6  C   UNL     1     -21.860   7.255   0.000  0.00  0.00    +0.313 C 
ENDBRANCH   7   6
ENDBRANCH  11  10
ENDBRANCH  15  13
BRANCH  18  19
ATOM     19  C   UNL     1     -10.168   2.005   0.000  0.00  0.00    +0.248 C 
ATOM     20  N   UNL     1     -10.168   0.505   0.000  0.00  0.00    -0.282 N 
ATOM     21  H   UNL     1     -11.021   0.012   0.000  0.00  0.00    +0.155 HD
ATOM     34  O   UNL     1      -8.869   2.755   0.000  0.00  0.00    -0.270 OA
BRANCH  20  22
ATOM     22  C   UNL     1      -8.869  -0.245   0.000  0.00  0.00    +0.034 A 
ATOM     23  C   UNL     1      -8.869  -1.745   0.000  0.00  0.00    +0.024 A 
ATOM     24  C   UNL     1      -7.570  -2.495   0.000  0.00  0.00    +0.018 A 
ATOM     25  C   UNL     1      -6.271  -1.745   0.000  0.00  0.00    +0.065 A 
ATOM     32  C   UNL     1      -6.271  -0.245   0.000  0.00  0.00    +0.018 A 
ATOM     33  C   UNL     1      -7.570   0.505   0.000  0.00  0.00    +0.024 A 
BRANCH  25  26
ATOM     26  C   UNL     1      -4.972  -2.495   0.000  0.00  0.00    +0.313 C 
ATOM     27  N   UNL     1      -3.602  -1.885   0.000  0.00  0.00    -0.230 N 
ATOM     28  H   UNL     1      -3.290  -0.418   0.000  0.00  0.00    +0.291 HD
ATOM     29  C   UNL     1      -2.598  -3.000   0.000  0.00  0.00    +0.273 C 
ATOM     30  C   UNL     1      -3.348  -4.299   0.000  0.00  0.00    +0.333 C 
ATOM     31  N   UNL     1      -4.815  -3.987   0.000  0.00  0.00    -0.079 NA
ENDBRANCH  25  26
ENDBRANCH  20  22
ENDBRANCH  18  19
TORSDOF 6