REMARK  Name = 651084
REMARK  8 active torsions:
REMARK  status: ('A' for Active; 'I' for Inactive)
REMARK    1  A    between atoms: C_3  and  N_7
REMARK    2  A    between atoms: C_8  and  C_16
REMARK    3  A    between atoms: C_13  and  O_17
REMARK    4  A    between atoms: O_17  and  C_21
REMARK    5  A    between atoms: C_18  and  C_20
REMARK    6  A    between atoms: C_21  and  C_23
REMARK    7  A    between atoms: C_23  and  O_24
REMARK    8  A    between atoms: O_24  and  C_25
REMARK                            x       y       z     vdW  Elec       q    Type
REMARK                         _______ _______ _______ _____ _____    ______ ____
ROOT
ATOM      1  O   UNL     1       5.946   6.750   0.000  0.00  0.00    -0.284 OA
ATOM      2  C   UNL     1       5.946   5.250   0.000  0.00  0.00    +0.228 C 
ATOM      3  C   UNL     1       7.245   4.500   0.000  0.00  0.00    +0.142 A 
ATOM      4  N   UNL     1       8.672   4.963   0.000  0.00  0.00    -0.224 NA
ATOM      5  C   UNL     1       9.553   3.750   0.000  0.00  0.00    +0.152 A 
ATOM      6  C   UNL     1      10.980   3.287   0.000  0.00  0.00    +0.244 C 
ATOM     13  C   UNL     1      10.980   1.787   0.000  0.00  0.00    +0.074 C 
ATOM     14  C   UNL     1       9.553   1.323   0.000  0.00  0.00    +0.128 C 
ATOM     15  N   UNL     1       8.672   2.537   0.000  0.00  0.00    -0.321 N 
ATOM     16  C   UNL     1       7.245   3.000   0.000  0.00  0.00    +0.120 A 
ATOM     17  C   UNL     1       5.946   2.250   0.000  0.00  0.00    +0.209 C 
ATOM     18  C   UNL     1       4.647   3.000   0.000  0.00  0.00    +0.023 C 
ATOM     19  C   UNL     1       3.348   2.250   0.000  0.00  0.00    +0.050 C 
ATOM     20  O   UNL     1       5.946   0.750   0.000  0.00  0.00    -0.285 OA
ATOM     21  C   UNL     1       4.647   4.500   0.000  0.00  0.00    +0.090 C 
ENDROOT
BRANCH  21  22
ATOM     22  N   UNL     1       3.348   5.250   0.000  0.00  0.00    -0.282 N 
ATOM     23  H   UNL     1       3.348   6.234   0.000  0.00  0.00    +0.155 HD
ATOM     24  C   UNL     1       2.049   4.500   0.000  0.00  0.00    +0.214 C 
ATOM     25  C   UNL     1       0.750   5.250   0.000  0.00  0.00    +0.109 C 
ATOM     26  O   UNL     1       2.049   3.000   0.000  0.00  0.00    -0.276 OA
ENDBRANCH  21  22
BRANCH   6   7
ATOM      7  O   UNL     1      12.194   4.168   0.000  0.00  0.00    -0.452 OA
BRANCH   7   8
ATOM      8  C   UNL     1      13.564   3.558   0.000  0.00  0.00    +0.334 C 
ATOM     12  O   UNL     1      13.721   2.066   0.000  0.00  0.00    -0.248 OA
BRANCH   8   9
ATOM      9  C   UNL     1      14.777   4.440   0.000  0.00  0.00    +0.279 C 
BRANCH   9  10
ATOM     10  O   UNL     1      16.148   3.830   0.000  0.00  0.00    -0.372 OA
ATOM     11  C   UNL     1      17.361   4.711   0.000  0.00  0.00    +0.194 C 
ENDBRANCH   9  10
ENDBRANCH   8   9
ENDBRANCH   7   8
ENDBRANCH   6   7
TORSDOF 5