REMARK  Name = 47617
REMARK  4 active torsions:
REMARK  status: ('A' for Active; 'I' for Inactive)
REMARK    1  A    between atoms: C_10  and  C_15
REMARK    2  A    between atoms: C_11  and  C_12
REMARK    3  A    between atoms: C_12  and  O_14
REMARK    4  A    between atoms: C_15  and  O_17
REMARK                            x       y       z     vdW  Elec       q    Type
REMARK                         _______ _______ _______ _____ _____    ______ ____
ROOT
ATOM      1  O   UNL     1      -8.250  -0.750   0.000  0.00  0.00    -0.342 OA
ATOM      2  C   UNL     1      -9.000  -2.049   0.000  0.00  0.00    +0.362 C 
ATOM      7  O   UNL     1      -8.250  -3.348   0.000  0.00  0.00    -0.342 OA
ATOM      8  C   UNL     1      -6.750  -3.348   0.000  0.00  0.00    +0.177 C 
ATOM      9  C   UNL     1      -6.000  -2.049   0.000  0.00  0.00    +0.064 C 
ATOM     10  C   UNL     1      -5.250  -3.348   0.000  0.00  0.00    +0.177 C 
ATOM     11  O   UNL     1      -3.750  -3.348   0.000  0.00  0.00    -0.342 OA
ATOM     12  C   UNL     1      -3.000  -2.049   0.000  0.00  0.00    +0.362 C 
ATOM     17  O   UNL     1      -3.750  -0.750   0.000  0.00  0.00    -0.342 OA
ATOM     18  C   UNL     1      -5.250  -0.750   0.000  0.00  0.00    +0.177 C 
ATOM     19  C   UNL     1      -6.750  -0.750   0.000  0.00  0.00    +0.177 C 
ENDROOT
BRANCH   2   3
ATOM      3  C   UNL     1     -10.500  -2.049   0.000  0.00  0.00    +0.362 C 
ATOM      6  O   UNL     1     -11.250  -0.750   0.000  0.00  0.00    -0.245 OA
BRANCH   3   4
ATOM      4  O   UNL     1     -11.250  -3.348   0.000  0.00  0.00    -0.477 OA
ATOM      5  H   UNL     1     -12.187  -3.348   0.000  0.00  0.00    +0.295 HD
ENDBRANCH   3   4
ENDBRANCH   2   3
BRANCH  12  13
ATOM     13  C   UNL     1      -1.500  -2.049   0.000  0.00  0.00    +0.362 C 
ATOM     16  O   UNL     1      -0.750  -0.750   0.000  0.00  0.00    -0.245 OA
BRANCH  13  14
ATOM     14  O   UNL     1      -0.750  -3.348   0.000  0.00  0.00    -0.477 OA
ATOM     15  H   UNL     1      -1.219  -4.160   0.000  0.00  0.00    +0.295 HD
ENDBRANCH  13  14
ENDBRANCH  12  13
TORSDOF 4