REMARK  Name = 73054
REMARK  2 active torsions:
REMARK  status: ('A' for Active; 'I' for Inactive)
REMARK    1  A    between atoms: C_1  and  C_7
REMARK    2  A    between atoms: C_2  and  C_13
REMARK                            x       y       z     vdW  Elec       q    Type
REMARK                         _______ _______ _______ _____ _____    ______ ____
ROOT
ATOM      1  C   UNL     1       2.049  -5.250   0.000  0.00  0.00    +0.203 A 
ATOM      8  N   UNL     1       0.750  -6.000   0.000  0.00  0.00    -0.125 NA
ATOM      9  N   UNL     1       0.750  -7.500   0.000  0.00  0.00    -0.125 NA
ATOM     10  C   UNL     1       2.049  -8.250   0.000  0.00  0.00    +0.203 A 
ATOM     17  N   UNL     1       3.348  -7.500   0.000  0.00  0.00    -0.125 NA
ATOM     18  N   UNL     1       3.348  -6.000   0.000  0.00  0.00    -0.125 NA
ENDROOT
BRANCH   1   2
ATOM      2  C   UNL     1       2.049  -3.750   0.000  0.00  0.00    +0.023 A 
ATOM      3  C   UNL     1       3.348  -3.000   0.000  0.00  0.00    +0.012 A 
ATOM      4  C   UNL     1       3.348  -1.500   0.000  0.00  0.00    +0.001 A 
ATOM      5  C   UNL     1       2.049  -0.750   0.000  0.00  0.00    +0.000 A 
ATOM      6  C   UNL     1       0.750  -1.500   0.000  0.00  0.00    +0.001 A 
ATOM      7  C   UNL     1       0.750  -3.000   0.000  0.00  0.00    +0.012 A 
ENDBRANCH   1   2
BRANCH  10  11
ATOM     11  C   UNL     1       2.049  -9.750   0.000  0.00  0.00    +0.023 A 
ATOM     12  C   UNL     1       0.750 -10.500   0.000  0.00  0.00    +0.012 A 
ATOM     13  C   UNL     1       0.750 -12.000   0.000  0.00  0.00    +0.001 A 
ATOM     14  C   UNL     1       2.049 -12.750   0.000  0.00  0.00    +0.000 A 
ATOM     15  C   UNL     1       3.348 -12.000   0.000  0.00  0.00    +0.001 A 
ATOM     16  C   UNL     1       3.348 -10.500   0.000  0.00  0.00    +0.012 A 
ENDBRANCH  10  11
TORSDOF 2