REMARK  Name = 45291
REMARK  3 active torsions:
REMARK  status: ('A' for Active; 'I' for Inactive)
REMARK    1  A    between atoms: C_3  and  N_15
REMARK    2  A    between atoms: C_8  and  C_13
REMARK    3  A    between atoms: C_13  and  N_15
REMARK                            x       y       z     vdW  Elec       q    Type
REMARK                         _______ _______ _______ _____ _____    ______ ____
ROOT
ATOM      7  C   UNL     1       2.873   5.524   0.000  0.00  0.00    +0.102 C 
ATOM     16  S   UNL     1       2.873   7.024   0.000  0.00  0.00    -0.033 S 
ENDROOT
BRANCH   7   6
ATOM      1  N   UNL     1       0.275   5.524   0.000  0.00  0.00    -0.253 NA
ATOM      2  C   UNL     1      -1.025   4.774   0.000  0.00  0.00    +0.111 A 
ATOM      3  C   UNL     1      -1.025   3.275   0.000  0.00  0.00    +0.020 A 
ATOM      4  C   UNL     1       0.275   2.525   0.000  0.00  0.00    +0.004 A 
ATOM      5  C   UNL     1       1.574   3.275   0.000  0.00  0.00    +0.030 A 
ATOM      6  C   UNL     1       1.574   4.774   0.000  0.00  0.00    +0.092 A 
ENDBRANCH   7   6
BRANCH   7   8
ATOM      8  N   UNL     1       4.172   4.774   0.000  0.00  0.00    -0.307 N 
ATOM      9  H   UNL     1       4.172   3.790   0.000  0.00  0.00    +0.153 HD
BRANCH   8  10
ATOM     10  C   UNL     1       5.471   5.524   0.000  0.00  0.00    +0.032 A 
ATOM     11  C   UNL     1       6.770   4.774   0.000  0.00  0.00    +0.023 A 
ATOM     12  C   UNL     1       8.069   5.524   0.000  0.00  0.00    +0.002 A 
ATOM     13  C   UNL     1       8.069   7.024   0.000  0.00  0.00    +0.000 A 
ATOM     14  C   UNL     1       6.770   7.774   0.000  0.00  0.00    +0.002 A 
ATOM     15  C   UNL     1       5.471   7.024   0.000  0.00  0.00    +0.023 A 
ENDBRANCH   8  10
ENDBRANCH   7   8
TORSDOF 3