REMARK  Name = 43308
REMARK  5 active torsions:
REMARK  status: ('A' for Active; 'I' for Inactive)
REMARK    1  A    between atoms: N_3  and  C_6
REMARK    2  A    between atoms: C_11  and  C_16
REMARK    3  A    between atoms: N_17  and  C_18
REMARK    4  A    between atoms: C_18  and  C_20
REMARK    5  A    between atoms: C_20  and  C_22
REMARK                            x       y       z     vdW  Elec       q    Type
REMARK                         _______ _______ _______ _____ _____    ______ ____
ROOT
ATOM      3  C   UNL     1       4.272  -4.399   0.000  0.00  0.00    +0.315 C 
ATOM     15  O   UNL     1       4.272  -5.899   0.000  0.00  0.00    -0.264 OA
ENDROOT
BRANCH   3   2
ATOM      1  C   UNL     1       2.973  -2.150   0.000  0.00  0.00    -0.021 C 
ATOM      2  N   UNL     1       2.973  -3.650   0.000  0.00  0.00    -0.130 NA
ATOM     16  C   UNL     1       2.973  -0.649   0.000  0.00  0.00    +0.077 C 
BRANCH  16  17
ATOM     17  C   UNL     1       4.272   0.101   0.000  0.00  0.00    -0.016 A 
ATOM     18  C   UNL     1       4.272   1.601   0.000  0.00  0.00    +0.008 A 
ATOM     19  C   UNL     1       5.571   2.350   0.000  0.00  0.00    +0.001 A 
ATOM     20  C   UNL     1       6.870   1.601   0.000  0.00  0.00    +0.000 A 
ATOM     21  C   UNL     1       6.870   0.101   0.000  0.00  0.00    +0.001 A 
ATOM     22  C   UNL     1       5.571  -0.649   0.000  0.00  0.00    +0.008 A 
ENDBRANCH  16  17
ENDBRANCH   3   2
BRANCH   3   4
ATOM      4  C   UNL     1       5.571  -3.650   0.000  0.00  0.00    +0.252 C 
ATOM     14  O   UNL     1       5.571  -2.150   0.000  0.00  0.00    -0.282 OA
BRANCH   4   5
ATOM      5  C   UNL     1       6.870  -4.399   0.000  0.00  0.00    +0.128 C 
ATOM      6  C   UNL     1       6.870  -5.899   0.000  0.00  0.00    -0.008 C 
ATOM      7  N   UNL     1       6.870  -7.399   0.000  0.00  0.00    -0.205 NA
BRANCH   7   8
ATOM      8  C   UNL     1       8.169  -8.149   0.000  0.00  0.00    +0.074 A 
ATOM      9  C   UNL     1       8.169  -9.649   0.000  0.00  0.00    +0.028 A 
ATOM     10  C   UNL     1       9.468 -10.400   0.000  0.00  0.00    +0.002 A 
ATOM     11  C   UNL     1      10.767  -9.649   0.000  0.00  0.00    +0.000 A 
ATOM     12  C   UNL     1      10.767  -8.149   0.000  0.00  0.00    +0.002 A 
ATOM     13  C   UNL     1       9.468  -7.399   0.000  0.00  0.00    +0.028 A 
ENDBRANCH   7   8
ENDBRANCH   4   5
ENDBRANCH   3   4
TORSDOF 5