REMARK  Name = 42846
REMARK  1 active torsions:
REMARK  status: ('A' for Active; 'I' for Inactive)
REMARK    1  A    between atoms: C_15  and  C_16
REMARK                            x       y       z     vdW  Elec       q    Type
REMARK                         _______ _______ _______ _____ _____    ______ ____
ROOT
ATOM      1  N   UNL     1      -3.573  -4.429   0.000  0.00  0.00    -0.229 NA
ATOM      2  C   UNL     1      -4.872  -5.179   0.000  0.00  0.00    +0.091 A 
ATOM      3  C   UNL     1      -4.872  -6.679   0.000  0.00  0.00    +0.090 A 
ATOM      4  C   UNL     1      -6.171  -7.429   0.000  0.00  0.00    +0.030 A 
ATOM      5  C   UNL     1      -7.470  -6.679   0.000  0.00  0.00    +0.002 A 
ATOM      6  C   UNL     1      -7.470  -5.179   0.000  0.00  0.00    +0.002 A 
ATOM      7  N   UNL     1      -3.572  -7.429   0.000  0.00  0.00    -0.247 NA
ATOM      8  C   UNL     1      -2.273  -6.679   0.000  0.00  0.00    +0.079 A 
ATOM      9  C   UNL     1      -0.975  -7.429   0.000  0.00  0.00    +0.069 C 
ATOM     10  C   UNL     1      -6.171  -4.429   0.000  0.00  0.00    +0.030 A 
ATOM     11  C   UNL     1      -2.273  -5.179   0.000  0.00  0.00    +0.143 A 
ATOM     12  N   UNL     1      -0.975  -4.429   0.000  0.00  0.00    -0.314 N 
ATOM     13  C   UNL     1       0.396  -5.039   0.000  0.00  0.00    +0.106 C 
ATOM     14  C   UNL     1       1.400  -3.924   0.000  0.00  0.00    +0.020 C 
ATOM     15  C   UNL     1       0.649  -2.625   0.000  0.00  0.00    +0.020 C 
ATOM     16  C   UNL     1      -0.818  -2.937   0.000  0.00  0.00    +0.106 C 
ENDROOT
TORSDOF 0