REMARK  Name = 44584
REMARK  7 active torsions:
REMARK  status: ('A' for Active; 'I' for Inactive)
REMARK    1  A    between atoms: N_1  and  C_17
REMARK    2  A    between atoms: S_5  and  C_9
REMARK    3  A    between atoms: S_5  and  C_11
REMARK    4  A    between atoms: N_7  and  C_21
REMARK    5  A    between atoms: C_8  and  N_18
REMARK    6  A    between atoms: C_21  and  C_22
REMARK    7  A    between atoms: C_22  and  C_23
REMARK                            x       y       z     vdW  Elec       q    Type
REMARK                         _______ _______ _______ _____ _____    ______ ____
ROOT
ATOM     11  C   UNL     1       3.348  -5.495   0.000  0.00  0.00    +0.136 A 
ATOM     12  C   UNL     1       4.647  -6.245   0.000  0.00  0.00    +0.140 A 
ATOM     13  C   UNL     1       4.647  -7.745   0.000  0.00  0.00    +0.166 A 
ATOM     14  N   UNL     1       6.074  -8.209   0.000  0.00  0.00    -0.315 N 
ATOM     18  C   UNL     1       6.955  -6.995   0.000  0.00  0.00    +0.201 A 
ATOM     19  N   UNL     1       3.348  -8.495   0.000  0.00  0.00    -0.195 NA
ATOM     20  C   UNL     1       2.049  -7.745   0.000  0.00  0.00    +0.216 A 
ATOM     21  N   UNL     1       0.750  -8.495   0.000  0.00  0.00    -0.327 N 
ATOM     22  H   UNL     1       0.750  -9.480   0.000  0.00  0.00    +0.145 HD
ATOM     23  H   UNL     1      -0.103  -8.003   0.000  0.00  0.00    +0.145 HD
ATOM     24  N   UNL     1       6.074  -5.782   0.000  0.00  0.00    -0.231 NA
ATOM     25  N   UNL     1       2.049  -6.245   0.000  0.00  0.00    -0.206 NA
ENDROOT
BRANCH  11  10
ATOM     10  S   UNL     1       3.348  -3.995   0.000  0.00  0.00    -0.041 S 
BRANCH  10   9
ATOM      1  N   UNL     1       0.695  -4.321   0.000  0.00  0.00    -0.323 N 
ATOM      2  C   UNL     1       0.643  -5.820   0.000  0.00  0.00    +0.151 C 
ATOM      3  C   UNL     1      -0.487  -3.398   0.000  0.00  0.00    +0.206 A 
ATOM      4  N   UNL     1       0.026  -1.988   0.000  0.00  0.00    -0.170 NA
ATOM      5  C   UNL     1       1.525  -2.041   0.000  0.00  0.00    +0.399 A 
ATOM      9  C   UNL     1       1.938  -3.482   0.000  0.00  0.00    +0.182 A 
BRANCH   5   6
ATOM      6  N   UNL     1       2.449  -0.859   0.000  0.00  0.00    +0.103 N 
ATOM      7  O   UNL     1       1.887   0.532   0.000  0.00  0.00    +0.043 OA
ATOM      8  O   UNL     1       3.934  -1.067   0.000  0.00  0.00    -0.575 OA
ENDBRANCH   5   6
ENDBRANCH  10   9
ENDBRANCH  11  10
BRANCH  14  15
ATOM     15  C   UNL     1       6.537  -9.636   0.000  0.00  0.00    +0.124 C 
BRANCH  15  16
ATOM     16  C   UNL     1       8.004  -9.947   0.000  0.00  0.00    +0.018 C 
ATOM     17  C   UNL     1       8.468 -11.374   0.000  0.00  0.00    +0.005 C 
ENDBRANCH  15  16
ENDBRANCH  14  15
TORSDOF 5