REMARK  Name = 56906
REMARK  6 active torsions:
REMARK  status: ('A' for Active; 'I' for Inactive)
REMARK    1  A    between atoms: N_2  and  C_10
REMARK    2  A    between atoms: C_5  and  N_8
REMARK    3  A    between atoms: C_6  and  N_11
REMARK    4  A    between atoms: C_7  and  S_13
REMARK    5  A    between atoms: N_11  and  C_12
REMARK    6  A    between atoms: S_13  and  C_14
REMARK                            x       y       z     vdW  Elec       q    Type
REMARK                         _______ _______ _______ _____ _____    ______ ____
ROOT
ATOM      1  O   UNL     1      -0.375   6.649   0.000  0.00  0.00    -0.265 OA
ATOM      2  C   UNL     1       0.924   5.899   0.000  0.00  0.00    +0.285 A 
ATOM      3  C   UNL     1       0.924   4.399   0.000  0.00  0.00    +0.211 A 
ATOM      6  C   UNL     1       2.223   3.650   0.000  0.00  0.00    +0.156 A 
ATOM     10  N   UNL     1       3.522   4.399   0.000  0.00  0.00    -0.206 NA
ATOM     11  C   UNL     1       3.522   5.899   0.000  0.00  0.00    +0.173 A 
ATOM     14  N   UNL     1       2.223   6.649   0.000  0.00  0.00    -0.289 N 
ATOM     15  C   UNL     1       2.223   8.149   0.000  0.00  0.00    +0.154 C 
ENDROOT
BRANCH   6   7
ATOM      7  N   UNL     1       2.223   2.150   0.000  0.00  0.00    -0.330 N 
ATOM      8  H   UNL     1       3.076   1.657   0.000  0.00  0.00    +0.147 HD
ATOM      9  C   UNL     1       0.924   1.400   0.000  0.00  0.00    +0.127 C 
ENDBRANCH   6   7
BRANCH   3   4
ATOM      4  N   UNL     1      -0.375   3.650   0.000  0.00  0.00    -0.022 NA
ATOM      5  O   UNL     1      -1.674   4.399   0.000  0.00  0.00    -0.143 OA
ENDBRANCH   3   4
BRANCH  11  12
ATOM     12  S   UNL     1       4.821   6.649   0.000  0.00  0.00    -0.091 S 
ATOM     13  C   UNL     1       6.120   5.899   0.000  0.00  0.00    +0.093 C 
ENDBRANCH  11  12
TORSDOF 3