REMARK  Name = 99867
REMARK  1 active torsions:
REMARK  status: ('A' for Active; 'I' for Inactive)
REMARK    1  A    between atoms: C_15  and  C_16
REMARK                            x       y       z     vdW  Elec       q    Type
REMARK                         _______ _______ _______ _____ _____    ______ ____
ROOT
ATOM      1  N   UNL     1       4.272  -1.400   0.000  0.00  0.00    -0.299 N 
ATOM      2  C   UNL     1       5.571  -2.150   0.000  0.00  0.00    +0.224 A 
ATOM      3  N   UNL     1       6.870  -1.400   0.000  0.00  0.00    -0.177 NA
ATOM      4  C   UNL     1       8.169  -2.150   0.000  0.00  0.00    +0.261 A 
ATOM      5  N   UNL     1       9.596  -1.686   0.000  0.00  0.00    -0.108 NA
ATOM      6  N   UNL     1      10.477  -2.900   0.000  0.00  0.00    -0.127 NA
ATOM      7  C   UNL     1       9.596  -4.113   0.000  0.00  0.00    +0.172 A 
ATOM     14  N   UNL     1       8.169  -3.650   0.000  0.00  0.00    -0.231 N 
ATOM     15  C   UNL     1       6.870  -4.399   0.000  0.00  0.00    +0.210 A 
ATOM     16  N   UNL     1       6.870  -5.899   0.000  0.00  0.00    -0.301 N 
ATOM     17  C   UNL     1       5.571  -6.649   0.000  0.00  0.00    +0.108 C 
ATOM     18  C   UNL     1       5.571  -8.149   0.000  0.00  0.00    +0.019 C 
ATOM     19  C   UNL     1       6.870  -8.899   0.000  0.00  0.00    +0.003 C 
ATOM     20  C   UNL     1       8.169  -8.149   0.000  0.00  0.00    +0.019 C 
ATOM     21  C   UNL     1       8.169  -6.649   0.000  0.00  0.00    +0.108 C 
ATOM     22  N   UNL     1       5.571  -3.650   0.000  0.00  0.00    -0.182 NA
ATOM     23  C   UNL     1       2.973  -2.150   0.000  0.00  0.00    +0.108 C 
ATOM     24  C   UNL     1       1.674  -1.400   0.000  0.00  0.00    +0.019 C 
ATOM     25  C   UNL     1       1.674   0.101   0.000  0.00  0.00    +0.003 C 
ATOM     26  C   UNL     1       2.973   0.851   0.000  0.00  0.00    +0.019 C 
ATOM     27  C   UNL     1       4.272   0.101   0.000  0.00  0.00    +0.108 C 
ENDROOT
BRANCH   7   8
ATOM      8  C   UNL     1      10.059  -5.540   0.000  0.00  0.00    +0.020 A 
ATOM      9  C   UNL     1      11.527  -5.851   0.000  0.00  0.00    +0.011 A 
ATOM     10  C   UNL     1      11.990  -7.278   0.000  0.00  0.00    +0.001 A 
ATOM     11  C   UNL     1      10.986  -8.393   0.000  0.00  0.00    +0.000 A 
ATOM     12  C   UNL     1       9.519  -8.081   0.000  0.00  0.00    +0.001 A 
ATOM     13  C   UNL     1       9.056  -6.654   0.000  0.00  0.00    +0.011 A 
ENDBRANCH   7   8
TORSDOF 1