REMARK  Name = 88349
REMARK  3 active torsions:
REMARK  status: ('A' for Active; 'I' for Inactive)
REMARK    1  A    between atoms: C_6  and  C_8
REMARK    2  A    between atoms: C_8  and  C_11
REMARK    3  A    between atoms: C_11  and  C_14
REMARK                            x       y       z     vdW  Elec       q    Type
REMARK                         _______ _______ _______ _____ _____    ______ ____
ROOT
ATOM      5  C   UNL     1      -1.489  -4.931   0.000  0.00  0.00    +0.378 C 
ATOM     13  F   UNL     1      -0.190  -5.681   0.000  0.00  0.00    -0.190 F 
ATOM     14  F   UNL     1      -2.788  -4.181   0.000  0.00  0.00    -0.190 F 
ENDROOT
BRANCH   5   4
ATOM      1  O   UNL     1      -2.587 -10.096   0.000  0.00  0.00    -0.219 OA
ATOM      2  C   UNL     1      -2.744  -8.604   0.000  0.00  0.00    +0.461 A 
ATOM      3  N   UNL     1      -1.629  -7.600   0.000  0.00  0.00    -0.152 NA
ATOM      4  C   UNL     1      -2.239  -6.230   0.000  0.00  0.00    +0.219 A 
ATOM     15  N   UNL     1      -3.731  -6.387   0.000  0.00  0.00    -0.196 N 
ATOM     16  H   UNL     1      -4.734  -5.272   0.000  0.00  0.00    +0.209 HD
ATOM     17  O   UNL     1      -4.043  -7.854   0.000  0.00  0.00    -0.320 OA
ENDBRANCH   5   4
BRANCH   5   6
ATOM      6  C   UNL     1      -0.739  -3.632   0.000  0.00  0.00    +0.410 C 
ATOM     11  F   UNL     1      -0.739  -2.132   0.000  0.00  0.00    -0.189 F 
ATOM     12  F   UNL     1      -2.038  -2.882   0.000  0.00  0.00    -0.189 F 
BRANCH   6   7
ATOM      7  C   UNL     1       0.761  -3.632   0.000  0.00  0.00    +0.461 C 
ATOM      8  F   UNL     1       2.261  -3.632   0.000  0.00  0.00    -0.165 F 
ATOM      9  F   UNL     1       0.761  -2.132   0.000  0.00  0.00    -0.165 F 
ATOM     10  F   UNL     1       0.761  -5.132   0.000  0.00  0.00    -0.165 F 
ENDBRANCH   6   7
ENDBRANCH   5   6
TORSDOF 3