REMARK  Name = 76478
REMARK  3 active torsions:
REMARK  status: ('A' for Active; 'I' for Inactive)
REMARK    1  A    between atoms: C_8  and  C_10
REMARK    2  A    between atoms: C_14  and  C_22
REMARK    3  A    between atoms: C_15  and  C_16
REMARK                            x       y       z     vdW  Elec       q    Type
REMARK                         _______ _______ _______ _____ _____    ______ ____
ROOT
ATOM      1  N   UNL     1       5.571  -3.650   0.000  0.00  0.00    -0.209 NA
ATOM      2  C   UNL     1       5.571  -2.150   0.000  0.00  0.00    +0.166 A 
ATOM      9  N   UNL     1       6.870  -1.400   0.000  0.00  0.00    -0.191 NA
ATOM     10  C   UNL     1       8.169  -2.150   0.000  0.00  0.00    +0.259 A 
ATOM     11  N   UNL     1       9.596  -1.686   0.000  0.00  0.00    -0.108 NA
ATOM     12  N   UNL     1      10.477  -2.900   0.000  0.00  0.00    -0.132 NA
ATOM     13  C   UNL     1       9.596  -4.113   0.000  0.00  0.00    +0.137 A 
ATOM     14  C   UNL     1      10.059  -5.540   0.000  0.00  0.00    +0.088 C 
ATOM     15  N   UNL     1       8.169  -3.650   0.000  0.00  0.00    -0.247 N 
ATOM     16  C   UNL     1       6.870  -4.399   0.000  0.00  0.00    +0.151 A 
ENDROOT
BRANCH   2   3
ATOM      3  C   UNL     1       4.272  -1.400   0.000  0.00  0.00    +0.019 A 
ATOM      4  C   UNL     1       2.973  -2.150   0.000  0.00  0.00    +0.011 A 
ATOM      5  C   UNL     1       1.674  -1.400   0.000  0.00  0.00    +0.001 A 
ATOM      6  C   UNL     1       1.674   0.101   0.000  0.00  0.00    +0.000 A 
ATOM      7  C   UNL     1       2.973   0.851   0.000  0.00  0.00    +0.001 A 
ATOM      8  C   UNL     1       4.272   0.101   0.000  0.00  0.00    +0.011 A 
ENDBRANCH   2   3
BRANCH  16  17
ATOM     17  C   UNL     1       6.870  -5.899   0.000  0.00  0.00    +0.018 A 
ATOM     18  C   UNL     1       5.571  -6.649   0.000  0.00  0.00    +0.011 A 
ATOM     19  C   UNL     1       5.571  -8.149   0.000  0.00  0.00    +0.001 A 
ATOM     20  C   UNL     1       6.870  -8.899   0.000  0.00  0.00    +0.000 A 
ATOM     21  C   UNL     1       8.169  -8.149   0.000  0.00  0.00    +0.001 A 
ATOM     22  C   UNL     1       8.169  -6.649   0.000  0.00  0.00    +0.011 A 
ENDBRANCH  16  17
TORSDOF 2