REMARK  Name = 42021
REMARK  6 active torsions:
REMARK  status: ('A' for Active; 'I' for Inactive)
REMARK    1  A    between atoms: C_4  and  C_7
REMARK    2  A    between atoms: C_5  and  S_9
REMARK    3  A    between atoms: S_9  and  C_10
REMARK    4  A    between atoms: C_10  and  C_11
REMARK    5  A    between atoms: C_11  and  C_12
REMARK    6  A    between atoms: C_12  and  C_13
REMARK                            x       y       z     vdW  Elec       q    Type
REMARK                         _______ _______ _______ _____ _____    ______ ____
ROOT
ATOM      1  N   UNL     1       2.049   3.000   0.000  0.00  0.00    -0.220 NA
ATOM      2  C   UNL     1       3.348   2.250   0.000  0.00  0.00    +0.214 A 
ATOM      3  N   UNL     1       3.348   0.750   0.000  0.00  0.00    -0.327 N 
ATOM      4  H   UNL     1       4.201   0.258   0.000  0.00  0.00    +0.145 HD
ATOM      5  H   UNL     1       2.495   0.258   0.000  0.00  0.00    +0.145 HD
ATOM      6  N   UNL     1       4.647   3.000   0.000  0.00  0.00    -0.208 NA
ATOM      7  C   UNL     1       4.647   4.500   0.000  0.00  0.00    +0.102 A 
ATOM     13  C   UNL     1       3.348   5.250   0.000  0.00  0.00    +0.058 A 
ATOM     14  C   UNL     1       2.049   4.500   0.000  0.00  0.00    +0.044 A 
ATOM     15  C   UNL     1       0.750   5.250   0.000  0.00  0.00    +0.066 C 
ENDROOT
BRANCH   7   8
ATOM      8  S   UNL     1       5.946   5.250   0.000  0.00  0.00    -0.106 S 
BRANCH   8   9
ATOM      9  C   UNL     1       7.245   4.500   0.000  0.00  0.00    +0.076 C 
BRANCH   9  10
ATOM     10  C   UNL     1       8.544   5.250   0.000  0.00  0.00    +0.011 C 
BRANCH  10  11
ATOM     11  C   UNL     1       9.843   4.500   0.000  0.00  0.00    -0.003 C 
ATOM     12  C   UNL     1      11.142   5.250   0.000  0.00  0.00    +0.004 C 
ENDBRANCH  10  11
ENDBRANCH   9  10
ENDBRANCH   8   9
ENDBRANCH   7   8
TORSDOF 4