REMARK  Name = 73735
REMARK  13 active torsions:
REMARK  status: ('A' for Active; 'I' for Inactive)
REMARK    1  A    between atoms: C_2  and  C_6
REMARK    2  A    between atoms: C_3  and  O_29
REMARK    3  A    between atoms: C_4  and  N_31
REMARK    4  A    between atoms: C_8  and  O_32
REMARK    5  A    between atoms: C_10  and  N_28
REMARK    6  A    between atoms: C_14  and  N_31
REMARK    7  A    between atoms: C_17  and  C_34
REMARK    8  A    between atoms: C_20  and  N_28
REMARK    9  A    between atoms: C_22  and  C_25
REMARK   10  A    between atoms: C_25  and  O_27
REMARK   11  A    between atoms: O_29  and  C_30
REMARK   12  A    between atoms: O_32  and  C_33
REMARK   13  A    between atoms: C_34  and  O_35
REMARK                            x       y       z     vdW  Elec       q    Type
REMARK                         _______ _______ _______ _____ _____    ______ ____
ROOT
ATOM      1  C   UNL     1      -9.000  -3.348   0.000  0.00  0.00    +0.056 A 
ATOM      2  C   UNL     1      -7.500  -3.348   0.000  0.00  0.00    +0.142 A 
ATOM      5  C   UNL     1      -6.750  -4.647   0.000  0.00  0.00    +0.074 A 
ATOM     18  C   UNL     1      -7.500  -5.946   0.000  0.00  0.00    +0.027 A 
ATOM     19  C   UNL     1      -9.000  -5.946   0.000  0.00  0.00    +0.010 A 
ATOM     20  C   UNL     1      -9.750  -4.647   0.000  0.00  0.00    -0.014 A 
ENDROOT
BRANCH  20  21
ATOM     21  C   UNL     1     -11.250  -4.647   0.000  0.00  0.00    -0.014 A 
ATOM     22  C   UNL     1     -12.000  -5.946   0.000  0.00  0.00    +0.010 A 
ATOM     23  C   UNL     1     -13.500  -5.946   0.000  0.00  0.00    +0.027 A 
ATOM     24  C   UNL     1     -14.250  -4.647   0.000  0.00  0.00    +0.074 A 
ATOM     37  C   UNL     1     -13.500  -3.348   0.000  0.00  0.00    +0.142 A 
ATOM     40  C   UNL     1     -12.000  -3.348   0.000  0.00  0.00    +0.056 A 
BRANCH  24  25
ATOM     25  N   UNL     1     -15.750  -4.647   0.000  0.00  0.00    -0.311 N 
ATOM     26  H   UNL     1     -16.242  -5.500   0.000  0.00  0.00    +0.152 HD
BRANCH  25  27
ATOM     27  C   UNL     1     -16.500  -3.348   0.000  0.00  0.00    +0.046 A 
ATOM     28  C   UNL     1     -18.000  -3.348   0.000  0.00  0.00    +0.080 A 
ATOM     33  C   UNL     1     -18.750  -2.049   0.000  0.00  0.00    +0.017 A 
ATOM     34  C   UNL     1     -18.000  -0.750   0.000  0.00  0.00    +0.001 A 
ATOM     35  C   UNL     1     -16.500  -0.750   0.000  0.00  0.00    +0.002 A 
ATOM     36  C   UNL     1     -15.750  -2.049   0.000  0.00  0.00    +0.024 A 
BRANCH  28  29
ATOM     29  C   UNL     1     -18.750  -4.647   0.000  0.00  0.00    +0.339 C 
ATOM     32  O   UNL     1     -18.000  -5.946   0.000  0.00  0.00    -0.245 OA
BRANCH  29  30
ATOM     30  O   UNL     1     -20.250  -4.647   0.000  0.00  0.00    -0.477 OA
ATOM     31  H   UNL     1     -20.718  -3.836   0.000  0.00  0.00    +0.295 HD
ENDBRANCH  29  30
ENDBRANCH  28  29
ENDBRANCH  25  27
ENDBRANCH  24  25
BRANCH  37  38
ATOM     38  O   UNL     1     -14.250  -2.049   0.000  0.00  0.00    -0.493 OA
ATOM     39  C   UNL     1     -13.500  -0.750   0.000  0.00  0.00    +0.277 C 
ENDBRANCH  37  38
ENDBRANCH  20  21
BRANCH   2   3
ATOM      3  O   UNL     1      -6.750  -2.049   0.000  0.00  0.00    -0.493 OA
ATOM      4  C   UNL     1      -7.500  -0.750   0.000  0.00  0.00    +0.277 C 
ENDBRANCH   2   3
BRANCH   5   6
ATOM      6  N   UNL     1      -5.250  -4.647   0.000  0.00  0.00    -0.311 N 
ATOM      7  H   UNL     1      -4.758  -5.500   0.000  0.00  0.00    +0.152 HD
BRANCH   6   8
ATOM      8  C   UNL     1      -4.500  -3.348   0.000  0.00  0.00    +0.046 A 
ATOM      9  C   UNL     1      -3.000  -3.348   0.000  0.00  0.00    +0.080 A 
ATOM     14  C   UNL     1      -2.250  -2.049   0.000  0.00  0.00    +0.017 A 
ATOM     15  C   UNL     1      -3.000  -0.750   0.000  0.00  0.00    +0.001 A 
ATOM     16  C   UNL     1      -4.500  -0.750   0.000  0.00  0.00    +0.002 A 
ATOM     17  C   UNL     1      -5.250  -2.049   0.000  0.00  0.00    +0.024 A 
BRANCH   9  10
ATOM     10  C   UNL     1      -2.250  -4.647   0.000  0.00  0.00    +0.339 C 
ATOM     11  O   UNL     1      -0.750  -4.647   0.000  0.00  0.00    -0.245 OA
BRANCH  10  12
ATOM     12  O   UNL     1      -3.000  -5.946   0.000  0.00  0.00    -0.477 OA
ATOM     13  H   UNL     1      -3.937  -5.946   0.000  0.00  0.00    +0.295 HD
ENDBRANCH  10  12
ENDBRANCH   9  10
ENDBRANCH   6   8
ENDBRANCH   5   6
TORSDOF 11