REMARK  Name = 96491
REMARK  4 active torsions:
REMARK  status: ('A' for Active; 'I' for Inactive)
REMARK    1  A    between atoms: N_1  and  C_12
REMARK    2  A    between atoms: C_12  and  C_13
REMARK    3  A    between atoms: N_14  and  O_15
REMARK    4  A    between atoms: N_16  and  O_17
REMARK                            x       y       z     vdW  Elec       q    Type
REMARK                         _______ _______ _______ _____ _____    ______ ____
ROOT
ATOM      1  N   UNL     1       4.827   1.975   0.000  0.00  0.00    -0.303 NA
ATOM      4  C   UNL     1       4.176   0.624   0.000  0.00  0.00    +0.084 C 
ATOM      5  C   UNL     1       4.827  -0.728   0.000  0.00  0.00    +0.016 C 
ATOM      6  C   UNL     1       6.289  -1.062   0.000  0.00  0.00    +0.008 C 
ATOM      7  C   UNL     1       7.462  -0.126   0.000  0.00  0.00    +0.061 C 
ATOM      8  C   UNL     1       8.761  -0.876   0.000  0.00  0.00    +0.104 C 
ATOM      9  N   UNL     1       8.761  -2.376   0.000  0.00  0.00    -0.090 NA
ATOM     12  C   UNL     1      10.060  -0.126   0.000  0.00  0.00    +0.104 C 
ATOM     13  N   UNL     1      11.359  -0.876   0.000  0.00  0.00    -0.090 NA
ATOM     16  C   UNL     1      10.060   1.374   0.000  0.00  0.00    +0.061 C 
ATOM     17  C   UNL     1       8.761   2.124   0.000  0.00  0.00    +0.008 C 
ATOM     18  C   UNL     1       7.462   1.374   0.000  0.00  0.00    +0.016 C 
ATOM     19  C   UNL     1       6.289   2.309   0.000  0.00  0.00    +0.084 C 
ENDROOT
BRANCH   1   2
ATOM      2  C   UNL     1       3.891   3.148   0.000  0.00  0.00    +0.081 C 
ATOM      3  C   UNL     1       2.408   2.924   0.000  0.00  0.00    +0.020 C 
ENDBRANCH   1   2
BRANCH   9  10
ATOM     10  O   UNL     1       7.462  -3.126   0.000  0.00  0.00    -0.409 OA
ATOM     11  H   UNL     1       6.650  -2.658   0.000  0.00  0.00    +0.328 HD
ENDBRANCH   9  10
BRANCH  13  14
ATOM     14  O   UNL     1      12.658  -0.126   0.000  0.00  0.00    -0.409 OA
ATOM     15  H   UNL     1      13.469  -0.595   0.000  0.00  0.00    +0.328 HD
ENDBRANCH  13  14
TORSDOF 3