REMARK  Name = 95909
REMARK  1 active torsions:
REMARK  status: ('A' for Active; 'I' for Inactive)
REMARK    1  A    between atoms: C_13  and  C_22
REMARK                            x       y       z     vdW  Elec       q    Type
REMARK                         _______ _______ _______ _____ _____    ______ ____
ROOT
ATOM      1  O   UNL     1      -5.946  -3.000   0.000  0.00  0.00    -0.270 OA
ATOM      2  C   UNL     1      -4.647  -3.750   0.000  0.00  0.00    +0.256 C 
ATOM      3  C   UNL     1      -4.647  -5.250   0.000  0.00  0.00    +0.100 C 
ATOM      4  C   UNL     1      -5.946  -6.000   0.000  0.00  0.00    +0.026 C 
ATOM     15  C   UNL     1      -3.348  -6.000   0.000  0.00  0.00    +0.256 C 
ATOM     16  N   UNL     1      -2.049  -5.250   0.000  0.00  0.00    -0.236 N 
ATOM     17  H   UNL     1      -0.750  -6.000   0.000  0.00  0.00    +0.159 HD
ATOM     18  C   UNL     1      -2.049  -3.750   0.000  0.00  0.00    +0.313 C 
ATOM     19  O   UNL     1      -0.750  -3.000   0.000  0.00  0.00    -0.252 OA
ATOM     20  O   UNL     1      -3.348  -7.500   0.000  0.00  0.00    -0.270 OA
ATOM     21  N   UNL     1      -3.348  -3.000   0.000  0.00  0.00    -0.236 N 
ATOM     22  H   UNL     1      -3.348  -1.500   0.000  0.00  0.00    +0.159 HD
ENDROOT
BRANCH   4   5
ATOM      5  C   UNL     1      -7.245  -5.250   0.000  0.00  0.00    -0.024 A 
ATOM      6  C   UNL     1      -8.544  -6.000   0.000  0.00  0.00    +0.008 A 
ATOM      7  C   UNL     1      -9.843  -5.250   0.000  0.00  0.00    +0.009 A 
ATOM      8  C   UNL     1      -9.843  -3.750   0.000  0.00  0.00    -0.018 A 
ATOM      9  C   UNL     1     -11.142  -3.000   0.000  0.00  0.00    +0.008 A 
ATOM     10  C   UNL     1     -11.142  -1.500   0.000  0.00  0.00    +0.001 A 
ATOM     11  C   UNL     1      -9.843  -0.750   0.000  0.00  0.00    +0.001 A 
ATOM     12  C   UNL     1      -8.544  -1.500   0.000  0.00  0.00    +0.008 A 
ATOM     13  C   UNL     1      -8.544  -3.000   0.000  0.00  0.00    -0.017 A 
ATOM     14  C   UNL     1      -7.245  -3.750   0.000  0.00  0.00    +0.016 A 
ENDBRANCH   4   5
TORSDOF 1