REMARK  Name = 70895
REMARK  3 active torsions:
REMARK  status: ('A' for Active; 'I' for Inactive)
REMARK    1  A    between atoms: N_5  and  C_17
REMARK    2  A    between atoms: N_18  and  C_19
REMARK    3  A    between atoms: N_18  and  C_20
REMARK                            x       y       z     vdW  Elec       q    Type
REMARK                         _______ _______ _______ _____ _____    ______ ____
ROOT
ATOM      1 CL   UNL     1       2.973  -3.650   0.000  0.00  0.00    -0.041 Cl
ATOM      2  C   UNL     1       4.272  -2.900   0.000  0.00  0.00    +0.226 A 
ATOM      3  N   UNL     1       5.571  -3.650   0.000  0.00  0.00    -0.198 NA
ATOM      4  C   UNL     1       6.870  -2.900   0.000  0.00  0.00    +0.170 A 
ATOM      5  C   UNL     1       6.870  -1.400   0.000  0.00  0.00    +0.149 A 
ATOM      6  C   UNL     1       5.571  -0.649   0.000  0.00  0.00    +0.153 A 
ATOM      7  N   UNL     1       5.571   0.851   0.000  0.00  0.00    -0.319 N 
ATOM      8  C   UNL     1       6.870   1.601   0.000  0.00  0.00    +0.130 C 
ATOM      9  C   UNL     1       4.272   1.601   0.000  0.00  0.00    +0.130 C 
ATOM     10  N   UNL     1       8.297  -0.936   0.000  0.00  0.00    -0.212 NA
ATOM     11  C   UNL     1       9.178  -2.150   0.000  0.00  0.00    +0.208 A 
ATOM     12 CL   UNL     1      10.679  -2.150   0.000  0.00  0.00    -0.043 Cl
ATOM     13  N   UNL     1       8.297  -3.363   0.000  0.00  0.00    -0.272 N 
ATOM     20  N   UNL     1       4.272  -1.400   0.000  0.00  0.00    -0.200 NA
ENDROOT
BRANCH  13  14
ATOM     14  C   UNL     1       8.760  -4.790   0.000  0.00  0.00    +0.223 C 
ATOM     15  C   UNL     1       7.757  -5.904   0.000  0.00  0.00    +0.055 C 
ATOM     16  C   UNL     1       8.220  -7.331   0.000  0.00  0.00    +0.007 C 
ATOM     17  C   UNL     1       9.687  -7.643   0.000  0.00  0.00    +0.028 C 
ATOM     18  C   UNL     1      10.691  -6.528   0.000  0.00  0.00    +0.162 C 
ATOM     19  O   UNL     1      10.227  -5.101   0.000  0.00  0.00    -0.356 OA
ENDBRANCH  13  14
TORSDOF 1