REMARK  Name = 73170
REMARK  6 active torsions:
REMARK  status: ('A' for Active; 'I' for Inactive)
REMARK    1  A    between atoms: C_3  and  N_8
REMARK    2  A    between atoms: C_9  and  O_11
REMARK    3  A    between atoms: O_11  and  C_12
REMARK    4  A    between atoms: C_12  and  C_13
REMARK    5  A    between atoms: C_12  and  C_14
REMARK    6  A    between atoms: C_14  and  O_16
REMARK                            x       y       z     vdW  Elec       q    Type
REMARK                         _______ _______ _______ _____ _____    ______ ____
ROOT
ATOM      7  N   UNL     1      -6.870   1.601   0.000  0.00  0.00    -0.251 N 
ATOM      8  H   UNL     1      -6.870   2.585   0.000  0.00  0.00    +0.158 HD
ATOM      9  C   UNL     1      -5.571   0.851   0.000  0.00  0.00    +0.405 C 
ATOM     17  O   UNL     1      -4.272   1.601   0.000  0.00  0.00    -0.226 OA
ENDROOT
BRANCH   7   6
ATOM      1 CL   UNL     1      -9.468  -2.900   0.000  0.00  0.00    -0.083 Cl
ATOM      2  C   UNL     1      -9.468  -1.400   0.000  0.00  0.00    +0.043 A 
ATOM      3  C   UNL     1     -10.767  -0.649   0.000  0.00  0.00    +0.020 A 
ATOM      4  C   UNL     1     -10.767   0.851   0.000  0.00  0.00    +0.003 A 
ATOM      5  C   UNL     1      -9.468   1.601   0.000  0.00  0.00    +0.023 A 
ATOM      6  C   UNL     1      -8.169   0.851   0.000  0.00  0.00    +0.038 A 
ATOM     18  C   UNL     1      -8.169  -0.649   0.000  0.00  0.00    +0.043 A 
ENDBRANCH   7   6
BRANCH   9  10
ATOM     10  O   UNL     1      -5.571  -0.649   0.000  0.00  0.00    -0.436 OA
BRANCH  10  11
ATOM     11  C   UNL     1      -4.272  -1.400   0.000  0.00  0.00    +0.283 C 
ATOM     16  C   UNL     1      -2.973  -0.649   0.000  0.00  0.00    +0.064 C 
BRANCH  11  12
ATOM     12  C   UNL     1      -4.272  -2.900   0.000  0.00  0.00    +0.346 C 
ATOM     15  O   UNL     1      -2.973  -3.650   0.000  0.00  0.00    -0.247 OA
BRANCH  12  13
ATOM     13  O   UNL     1      -5.571  -3.650   0.000  0.00  0.00    -0.478 OA
ATOM     14  H   UNL     1      -6.383  -3.181   0.000  0.00  0.00    +0.295 HD
ENDBRANCH  12  13
ENDBRANCH  11  12
ENDBRANCH  10  11
ENDBRANCH   9  10
TORSDOF 5