REMARK  Name = 50199
REMARK  4 active torsions:
REMARK  status: ('A' for Active; 'I' for Inactive)
REMARK    1  A    between atoms: N_4  and  C_6
REMARK    2  A    between atoms: C_7  and  C_11
REMARK    3  A    between atoms: C_10  and  S_12
REMARK    4  A    between atoms: S_12  and  C_13
REMARK                            x       y       z     vdW  Elec       q    Type
REMARK                         _______ _______ _______ _____ _____    ______ ____
ROOT
ATOM      1  N   UNL     1      -2.049   5.049   0.000  0.00  0.00    -0.226 NA
ATOM      2  C   UNL     1      -0.750   4.299   0.000  0.00  0.00    +0.190 A 
ATOM      5  N   UNL     1       0.549   5.049   0.000  0.00  0.00    -0.206 NA
ATOM      6  C   UNL     1       0.549   6.549   0.000  0.00  0.00    +0.140 A 
ATOM      7  C   UNL     1      -0.750   7.299   0.000  0.00  0.00    +0.079 A 
ATOM      8 BR   UNL     1      -0.750   8.799   0.000  0.00  0.00    -0.045 Br
ATOM     12  C   UNL     1      -2.049   6.549   0.000  0.00  0.00    +0.058 A 
ATOM     13  C   UNL     1      -3.348   7.299   0.000  0.00  0.00    +0.067 C 
ENDROOT
BRANCH   6   9
ATOM      9  N   UNL     1       1.848   7.299   0.000  0.00  0.00    -0.311 N 
ATOM     10  C   UNL     1       3.348   7.299   0.000  0.00  0.00    +0.125 C 
ATOM     11  C   UNL     1       2.598   8.598   0.000  0.00  0.00    +0.125 C 
ENDBRANCH   6   9
BRANCH   2   3
ATOM      3  S   UNL     1      -0.750   2.799   0.000  0.00  0.00    -0.089 S 
ATOM      4  C   UNL     1      -2.049   2.049   0.000  0.00  0.00    +0.093 C 
ENDBRANCH   2   3
TORSDOF 2