REMARK  Name = 93817
REMARK  1 active torsions:
REMARK  status: ('A' for Active; 'I' for Inactive)
REMARK    1  A    between atoms: C_9  and  C_11
REMARK                            x       y       z     vdW  Elec       q    Type
REMARK                         _______ _______ _______ _____ _____    ______ ____
ROOT
ATOM      1  O   UNL     1      -0.730  -3.148   0.000  0.00  0.00    -0.431 OA
ATOM      2  C   UNL     1       0.152  -4.361   0.000  0.00  0.00    +0.247 A 
ATOM      3  S   UNL     1       1.652  -4.361   0.000  0.00  0.00    +0.009 S 
ATOM      4  N   UNL     1      -0.730  -5.575   0.000  0.00  0.00    -0.317 N 
ATOM      5  H   UNL     1      -0.266  -7.001   0.000  0.00  0.00    +0.169 HD
ATOM      6  C   UNL     1      -2.156  -5.111   0.000  0.00  0.00    +0.086 A 
ATOM      7  C   UNL     1      -3.455  -5.861   0.000  0.00  0.00    +0.038 A 
ATOM      8  C   UNL     1      -4.755  -5.111   0.000  0.00  0.00    -0.016 A 
ATOM     15  C   UNL     1      -4.755  -3.611   0.000  0.00  0.00    +0.012 A 
ATOM     16  C   UNL     1      -3.455  -2.861   0.000  0.00  0.00    +0.049 A 
ATOM     17  C   UNL     1      -2.156  -3.611   0.000  0.00  0.00    +0.154 A 
ENDROOT
BRANCH   8   9
ATOM      9  C   UNL     1      -6.053  -5.861   0.000  0.00  0.00    -0.018 A 
ATOM     10  C   UNL     1      -7.353  -5.111   0.000  0.00  0.00    +0.008 A 
ATOM     11  C   UNL     1      -8.652  -5.861   0.000  0.00  0.00    +0.001 A 
ATOM     12  C   UNL     1      -8.652  -7.361   0.000  0.00  0.00    +0.000 A 
ATOM     13  C   UNL     1      -7.353  -8.111   0.000  0.00  0.00    +0.001 A 
ATOM     14  C   UNL     1      -6.053  -7.361   0.000  0.00  0.00    +0.008 A 
ENDBRANCH   8   9
TORSDOF 1