REMARK  Name = 68982
REMARK  2 active torsions:
REMARK  status: ('A' for Active; 'I' for Inactive)
REMARK    1  A    between atoms: C_5  and  C_9
REMARK    2  A    between atoms: N_10  and  N_11
REMARK                            x       y       z     vdW  Elec       q    Type
REMARK                         _______ _______ _______ _____ _____    ______ ____
ROOT
ATOM      9  C   UNL     1      -5.946  -2.250   0.000  0.00  0.00    +0.159 C 
ATOM     10  N   UNL     1      -4.647  -3.000   0.000  0.00  0.00    -0.119 NA
ENDROOT
BRANCH   9   8
ATOM      1 CL   UNL     1      -8.544  -0.750   0.000  0.00  0.00    -0.083 Cl
ATOM      2  C   UNL     1      -8.544  -2.250   0.000  0.00  0.00    +0.051 A 
ATOM      3  C   UNL     1      -9.843  -3.000   0.000  0.00  0.00    +0.021 A 
ATOM      4  C   UNL     1      -9.843  -4.500   0.000  0.00  0.00    +0.003 A 
ATOM      5  C   UNL     1      -8.544  -5.250   0.000  0.00  0.00    +0.021 A 
ATOM      6  C   UNL     1      -7.245  -4.500   0.000  0.00  0.00    +0.051 A 
ATOM      7 CL   UNL     1      -5.946  -5.250   0.000  0.00  0.00    -0.083 Cl
ATOM      8  C   UNL     1      -7.245  -3.000   0.000  0.00  0.00    +0.033 A 
ENDBRANCH   9   8
BRANCH  10  11
ATOM     11  N   UNL     1      -3.348  -2.250   0.000  0.00  0.00    -0.155 N 
ATOM     12  H   UNL     1      -3.348  -1.266   0.000  0.00  0.00    +0.292 HD
ATOM     13  C   UNL     1      -2.049  -3.000   0.000  0.00  0.00    +0.400 C 
ATOM     14  N   UNL     1      -2.049  -4.500   0.000  0.00  0.00    -0.128 NA
ATOM     15  H   UNL     1      -2.902  -4.992   0.000  0.00  0.00    +0.306 HD
ATOM     16  N   UNL     1      -0.750  -2.250   0.000  0.00  0.00    -0.288 N 
ATOM     17  H   UNL     1      -0.750  -1.266   0.000  0.00  0.00    +0.255 HD
ATOM     18  H   UNL     1       0.103  -2.742   0.000  0.00  0.00    +0.255 HD
ENDBRANCH  10  11
TORSDOF 2