REMARK  Name = 78697
REMARK  1 active torsions:
REMARK  status: ('A' for Active; 'I' for Inactive)
REMARK    1  A    between atoms: C_8  and  N_19
REMARK                            x       y       z     vdW  Elec       q    Type
REMARK                         _______ _______ _______ _____ _____    ______ ____
ROOT
ATOM      1  H   UNL     1     -10.250  -1.831   0.000  0.00  0.00    +0.167 HD
ATOM      2  N   UNL     1      -9.368  -3.045   0.000  0.00  0.00    -0.337 N 
ATOM      3  C   UNL     1      -9.978  -4.415   0.000  0.00  0.00    +0.066 A 
ATOM      4  C   UNL     1      -9.096  -5.629   0.000  0.00  0.00    +0.088 A 
ATOM      5  C   UNL     1      -9.707  -6.999   0.000  0.00  0.00    +0.030 A 
ATOM      6  C   UNL     1     -11.198  -7.156   0.000  0.00  0.00    +0.002 A 
ATOM      7  C   UNL     1     -12.080  -5.942   0.000  0.00  0.00    +0.002 A 
ATOM      8  N   UNL     1      -7.605  -5.472   0.000  0.00  0.00    -0.241 NA
ATOM      9  C   UNL     1      -6.995  -4.102   0.000  0.00  0.00    +0.116 A 
ATOM     10  C   UNL     1      -5.568  -3.638   0.000  0.00  0.00    +0.036 A 
ATOM     11  C   UNL     1      -4.269  -4.388   0.000  0.00  0.00    +0.096 A 
ATOM     12  C   UNL     1      -2.970  -3.638   0.000  0.00  0.00    +0.274 A 
ATOM     16  C   UNL     1      -2.970  -2.138   0.000  0.00  0.00    +0.086 A 
ATOM     17  C   UNL     1      -4.269  -1.388   0.000  0.00  0.00    +0.035 A 
ATOM     18  C   UNL     1      -5.568  -2.138   0.000  0.00  0.00    +0.076 A 
ATOM     19  N   UNL     1      -6.995  -1.675   0.000  0.00  0.00    -0.228 NA
ATOM     20  C   UNL     1     -11.470  -4.572   0.000  0.00  0.00    +0.028 A 
ATOM     21  C   UNL     1      -7.876  -2.888   0.000  0.00  0.00    +0.158 A 
ENDROOT
BRANCH  12  13
ATOM     13  N   UNL     1      -1.671  -4.388   0.000  0.00  0.00    +0.080 N 
ATOM     14  O   UNL     1      -1.671  -5.888   0.000  0.00  0.00    +0.041 OA
ATOM     15  O   UNL     1      -0.372  -3.638   0.000  0.00  0.00    -0.576 OA
ENDBRANCH  12  13
TORSDOF 1