REMARK  Name = 62609
REMARK  1 active torsions:
REMARK  status: ('A' for Active; 'I' for Inactive)
REMARK    1  A    between atoms: C_6  and  C_9
REMARK                            x       y       z     vdW  Elec       q    Type
REMARK                         _______ _______ _______ _____ _____    ______ ____
ROOT
ATOM      1  H   UNL     1      -5.284   2.185   0.000  0.00  0.00    +0.167 HD
ATOM      2  N   UNL     1      -6.399   1.181   0.000  0.00  0.00    -0.338 N 
ATOM      3  C   UNL     1      -7.866   1.493   0.000  0.00  0.00    +0.066 A 
ATOM      4  C   UNL     1      -8.616   0.194   0.000  0.00  0.00    +0.089 A 
ATOM      5  C   UNL     1     -10.116   0.194   0.000  0.00  0.00    +0.030 A 
ATOM      6  C   UNL     1     -10.866   1.493   0.000  0.00  0.00    +0.002 A 
ATOM      7  C   UNL     1     -10.116   2.792   0.000  0.00  0.00    +0.002 A 
ATOM      8  N   UNL     1      -7.612  -0.921   0.000  0.00  0.00    -0.228 NA
ATOM      9  C   UNL     1      -8.616   2.792   0.000  0.00  0.00    +0.028 A 
ATOM     10  C   UNL     1      -6.242  -0.311   0.000  0.00  0.00    +0.139 A 
ENDROOT
BRANCH  10  11
ATOM     11  C   UNL     1      -4.943  -1.061   0.000  0.00  0.00    +0.020 A 
ATOM     12  C   UNL     1      -4.943  -2.561   0.000  0.00  0.00    +0.031 A 
ATOM     13  C   UNL     1      -3.644  -3.311   0.000  0.00  0.00    +0.111 A 
ATOM     14  N   UNL     1      -2.345  -2.561   0.000  0.00  0.00    -0.263 NA
ATOM     15  C   UNL     1      -2.345  -1.061   0.000  0.00  0.00    +0.111 A 
ATOM     16  C   UNL     1      -3.644  -0.311   0.000  0.00  0.00    +0.031 A 
ENDBRANCH  10  11
TORSDOF 1