REMARK  Name = 64952
REMARK  0 active torsions:
REMARK  status: ('A' for Active; 'I' for Inactive)
REMARK                            x       y       z     vdW  Elec       q    Type
REMARK                         _______ _______ _______ _____ _____    ______ ____
ROOT
ATOM      1  N   UNL     1      -2.714  -6.077   0.000  0.00  0.00    -0.223 NA
ATOM      2  C   UNL     1      -3.178  -4.650   0.000  0.00  0.00    +0.225 A 
ATOM      3  N   UNL     1      -2.174  -3.535   0.000  0.00  0.00    -0.218 NA
ATOM      4  C   UNL     1      -0.707  -3.847   0.000  0.00  0.00    +0.143 A 
ATOM      5  C   UNL     1      -0.243  -5.274   0.000  0.00  0.00    +0.055 A 
ATOM      6  C   UNL     1       1.257  -5.274   0.000  0.00  0.00    +0.032 A 
ATOM      7  C   UNL     1       1.720  -3.847   0.000  0.00  0.00    +0.085 A 
ATOM      8  N   UNL     1       0.507  -2.966   0.000  0.00  0.00    -0.346 N 
ATOM      9  H   UNL     1       0.507  -1.466   0.000  0.00  0.00    +0.167 HD
ATOM     10  C   UNL     1      -1.247  -6.388   0.000  0.00  0.00    +0.142 A 
ATOM     11 CL   UNL     1      -0.783  -7.815   0.000  0.00  0.00    -0.061 Cl
ENDROOT
TORSDOF 0