REMARK  Name = 72947
REMARK  6 active torsions:
REMARK  status: ('A' for Active; 'I' for Inactive)
REMARK    1  A    between atoms: C_6  and  N_16
REMARK    2  A    between atoms: C_7  and  O_12
REMARK    3  A    between atoms: C_9  and  O_14
REMARK    4  A    between atoms: C_10  and  N_19
REMARK    5  A    between atoms: O_12  and  C_13
REMARK    6  A    between atoms: O_14  and  C_15
REMARK                            x       y       z     vdW  Elec       q    Type
REMARK                         _______ _______ _______ _____ _____    ______ ____
ROOT
ATOM      1  O   UNL     1       5.989  -0.141   0.000  0.00  0.00    -0.245 OA
ATOM      2  C   UNL     1       6.453  -1.567   0.000  0.00  0.00    +0.347 C 
ATOM      3  C   UNL     1       5.571  -2.781   0.000  0.00  0.00    +0.148 A 
ATOM      4  C   UNL     1       4.079  -2.938   0.000  0.00  0.00    +0.332 A 
ATOM      8  C   UNL     1       3.469  -4.308   0.000  0.00  0.00    +0.242 A 
ATOM     11  C   UNL     1       4.351  -5.522   0.000  0.00  0.00    +0.190 A 
ATOM     14  C   UNL     1       5.843  -5.365   0.000  0.00  0.00    +0.087 A 
ATOM     19  C   UNL     1       6.453  -3.994   0.000  0.00  0.00    +0.035 A 
ATOM     20  C   UNL     1       7.880  -3.531   0.000  0.00  0.00    +0.271 C 
ATOM     21  O   UNL     1       7.880  -2.031   0.000  0.00  0.00    -0.456 OA
ENDROOT
BRANCH  14  15
ATOM     15  N   UNL     1       6.724  -6.578   0.000  0.00  0.00    -0.285 N 
ATOM     16  H   UNL     1       7.704  -6.475   0.000  0.00  0.00    +0.155 HD
ATOM     17  C   UNL     1       6.114  -7.949   0.000  0.00  0.00    +0.330 C 
ATOM     18  O   UNL     1       6.996  -9.162   0.000  0.00  0.00    -0.279 OA
ENDBRANCH  14  15
BRANCH   4   5
ATOM      5  N   UNL     1       3.198  -1.724   0.000  0.00  0.00    +0.084 N 
ATOM      6  O   UNL     1       3.808  -0.354   0.000  0.00  0.00    +0.042 OA
ATOM      7  O   UNL     1       1.706  -1.881   0.000  0.00  0.00    -0.576 OA
ENDBRANCH   4   5
BRANCH   8   9
ATOM      9  O   UNL     1       1.978  -4.465   0.000  0.00  0.00    -0.486 OA
ATOM     10  C   UNL     1       1.367  -5.835   0.000  0.00  0.00    +0.277 C 
ENDBRANCH   8   9
BRANCH  11  12
ATOM     12  O   UNL     1       3.741  -6.892   0.000  0.00  0.00    -0.490 OA
ATOM     13  C   UNL     1       2.249  -7.049   0.000  0.00  0.00    +0.277 C 
ENDBRANCH  11  12
TORSDOF 4