REMARK  Name = 680516
REMARK  6 active torsions:
REMARK  status: ('A' for Active; 'I' for Inactive)
REMARK    1  A    between atoms: C_9  and  N_11
REMARK    2  A    between atoms: N_12  and  C_13
REMARK    3  A    between atoms: C_14  and  C_19
REMARK    4  A    between atoms: C_16  and  N_20
REMARK    5  A    between atoms: N_20  and  C_21
REMARK    6  A    between atoms: N_20  and  C_22
REMARK                            x       y       z     vdW  Elec       q    Type
REMARK                         _______ _______ _______ _____ _____    ______ ____
ROOT
ATOM      6  N   UNL     1       4.172   7.774   0.000  0.00  0.00    -0.149 NA
ATOM      7  N   UNL     1       5.471   7.024   0.000  0.00  0.00    -0.149 NA
ENDROOT
BRANCH   6   5
ATOM      1  C   UNL     1      -2.324   7.024   0.000  0.00  0.00    +0.020 A 
ATOM      2  C   UNL     1      -1.025   7.774   0.000  0.00  0.00    +0.011 A 
ATOM      3  C   UNL     1       0.275   7.024   0.000  0.00  0.00    +0.002 A 
ATOM      4  C   UNL     1       1.574   7.774   0.000  0.00  0.00    +0.039 A 
ATOM      5  C   UNL     1       2.873   7.024   0.000  0.00  0.00    +0.087 A 
ATOM     18  C   UNL     1       2.873   5.524   0.000  0.00  0.00    +0.031 A 
ATOM     19  C   UNL     1       1.574   4.774   0.000  0.00  0.00    +0.030 A 
ATOM     20  C   UNL     1       0.275   5.524   0.000  0.00  0.00    +0.071 A 
ATOM     21  N   UNL     1      -1.025   4.774   0.000  0.00  0.00    -0.255 NA
ATOM     22  C   UNL     1      -2.324   5.524   0.000  0.00  0.00    +0.111 A 
ENDBRANCH   6   5
BRANCH   7   8
ATOM      8  C   UNL     1       6.770   7.774   0.000  0.00  0.00    +0.089 A 
ATOM      9  C   UNL     1       6.770   9.274   0.000  0.00  0.00    +0.031 A 
ATOM     10  C   UNL     1       8.069  10.025   0.000  0.00  0.00    +0.025 A 
ATOM     11  C   UNL     1       9.368   9.274   0.000  0.00  0.00    +0.030 A 
ATOM     15  C   UNL     1       9.368   7.774   0.000  0.00  0.00    +0.028 A 
ATOM     16  C   UNL     1       8.069   7.024   0.000  0.00  0.00    -0.022 A 
ATOM     17  C   UNL     1       8.069   5.524   0.000  0.00  0.00    +0.046 C 
BRANCH  11  12
ATOM     12  N   UNL     1      10.667  10.025   0.000  0.00  0.00    -0.336 N 
ATOM     13  C   UNL     1      10.667  11.525   0.000  0.00  0.00    +0.129 C 
ATOM     14  C   UNL     1      11.966   9.274   0.000  0.00  0.00    +0.129 C 
ENDBRANCH  11  12
ENDBRANCH   7   8
TORSDOF 3