REMARK  Name = 46492
REMARK  7 active torsions:
REMARK  status: ('A' for Active; 'I' for Inactive)
REMARK    1  A    between atoms: C_1  and  C_13
REMARK    2  A    between atoms: C_3  and  N_17
REMARK    3  A    between atoms: C_6  and  C_14
REMARK    4  A    between atoms: C_8  and  N_20
REMARK    5  A    between atoms: C_10  and  N_21
REMARK    6  A    between atoms: C_14  and  C_15
REMARK    7  A    between atoms: C_14  and  C_16
REMARK                            x       y       z     vdW  Elec       q    Type
REMARK                         _______ _______ _______ _____ _____    ______ ____
ROOT
ATOM     11  N   UNL     1       4.647  -9.750   0.000  0.00  0.00    -0.269 N 
ATOM     12  H   UNL     1       5.500 -10.242   0.000  0.00  0.00    +0.156 HD
ATOM     13  C   UNL     1       4.647  -8.250   0.000  0.00  0.00    +0.308 C 
ATOM     14  N   UNL     1       3.348  -7.500   0.000  0.00  0.00    -0.269 N 
ATOM     15  H   UNL     1       2.495  -7.992   0.000  0.00  0.00    +0.156 HD
ATOM     25  O   UNL     1       5.946  -7.500   0.000  0.00  0.00    -0.252 OA
ENDROOT
BRANCH  11  10
ATOM      1  C   UNL     1       2.049  -9.750   0.000  0.00  0.00    -0.029 A 
ATOM      2  C   UNL     1       2.049  -8.250   0.000  0.00  0.00    +0.045 C 
ATOM      3  C   UNL     1       0.750 -10.500   0.000  0.00  0.00    +0.005 A 
ATOM      4  C   UNL     1       0.750 -12.000   0.000  0.00  0.00    +0.004 A 
ATOM      5  C   UNL     1       2.049 -12.750   0.000  0.00  0.00    -0.043 A 
ATOM      9  C   UNL     1       3.348 -12.000   0.000  0.00  0.00    +0.027 A 
ATOM     10  C   UNL     1       3.348 -10.500   0.000  0.00  0.00    +0.038 A 
BRANCH   5   6
ATOM      6  C   UNL     1       2.049 -14.250   0.000  0.00  0.00    +0.013 C 
ATOM      7  C   UNL     1       3.348 -15.000   0.000  0.00  0.00    +0.012 C 
ATOM      8  C   UNL     1       0.750 -15.000   0.000  0.00  0.00    +0.012 C 
ENDBRANCH   5   6
ENDBRANCH  11  10
BRANCH  14  16
ATOM     16  C   UNL     1       3.348  -6.000   0.000  0.00  0.00    +0.035 A 
ATOM     17  C   UNL     1       4.647  -5.250   0.000  0.00  0.00    +0.030 A 
ATOM     18  C   UNL     1       4.647  -3.750   0.000  0.00  0.00    +0.086 A 
ATOM     19  C   UNL     1       3.348  -3.000   0.000  0.00  0.00    +0.273 A 
ATOM     23  C   UNL     1       2.049  -3.750   0.000  0.00  0.00    +0.086 A 
ATOM     24  C   UNL     1       2.049  -5.250   0.000  0.00  0.00    +0.030 A 
BRANCH  19  20
ATOM     20  N   UNL     1       3.348  -1.500   0.000  0.00  0.00    +0.080 N 
ATOM     21  O   UNL     1       4.647  -0.750   0.000  0.00  0.00    +0.041 OA
ATOM     22  O   UNL     1       2.049  -0.750   0.000  0.00  0.00    -0.576 OA
ENDBRANCH  19  20
ENDBRANCH  14  16
TORSDOF 4