REMARK  Name = 51683
REMARK  3 active torsions:
REMARK  status: ('A' for Active; 'I' for Inactive)
REMARK    1  A    between atoms: C_9  and  N_19
REMARK    2  A    between atoms: C_14  and  O_21
REMARK    3  A    between atoms: O_21  and  C_22
REMARK                            x       y       z     vdW  Elec       q    Type
REMARK                         _______ _______ _______ _____ _____    ______ ____
ROOT
ATOM      1  C   UNL     1      -3.522  -4.399   0.000  0.00  0.00    +0.374 C 
ATOM      2  N   UNL     1      -4.821  -3.650   0.000  0.00  0.00    -0.133 NA
ATOM      3  H   UNL     1      -4.821  -2.665   0.000  0.00  0.00    +0.306 HD
ATOM      4  N   UNL     1      -2.223  -3.650   0.000  0.00  0.00    -0.206 N 
ATOM      5  H   UNL     1      -2.223  -2.665   0.000  0.00  0.00    +0.251 HD
ATOM     13  N   UNL     1      -3.522  -5.899   0.000  0.00  0.00    -0.192 N 
ATOM     14  C   UNL     1      -2.223  -6.649   0.000  0.00  0.00    +0.194 C 
ATOM     15  C   UNL     1      -2.223  -8.149   0.000  0.00  0.00    +0.040 C 
ATOM     16  C   UNL     1      -3.522  -8.899   0.000  0.00  0.00    +0.041 C 
ATOM     17  C   UNL     1      -4.821  -8.149   0.000  0.00  0.00    -0.007 A 
ATOM     18  C   UNL     1      -6.120  -8.899   0.000  0.00  0.00    +0.052 A 
ATOM     19  C   UNL     1      -7.419  -8.149   0.000  0.00  0.00    +0.121 A 
ATOM     22  C   UNL     1      -7.419  -6.649   0.000  0.00  0.00    +0.049 A 
ATOM     23  C   UNL     1      -6.120  -5.899   0.000  0.00  0.00    +0.044 A 
ATOM     24  C   UNL     1      -4.821  -6.649   0.000  0.00  0.00    +0.098 A 
ENDROOT
BRANCH   4   6
ATOM      6  C   UNL     1      -0.924  -4.399   0.000  0.00  0.00    +0.092 A 
ATOM      7  C   UNL     1      -0.924  -5.899   0.000  0.00  0.00    +0.041 A 
ATOM      8  C   UNL     1       0.375  -6.649   0.000  0.00  0.00    +0.023 A 
ATOM      9  C   UNL     1       1.674  -5.899   0.000  0.00  0.00    +0.041 A 
ATOM     10  C   UNL     1       1.674  -4.399   0.000  0.00  0.00    +0.023 A 
ATOM     11 CL   UNL     1       2.973  -6.649   0.000  0.00  0.00    -0.084 Cl
ATOM     12  C   UNL     1       0.375  -3.650   0.000  0.00  0.00    +0.041 A 
ENDBRANCH   4   6
BRANCH  19  20
ATOM     20  O   UNL     1      -8.718  -8.899   0.000  0.00  0.00    -0.495 OA
ATOM     21  C   UNL     1     -10.017  -8.149   0.000  0.00  0.00    +0.277 C 
ENDBRANCH  19  20
TORSDOF 2