REMARK  Name = 637153
REMARK  9 active torsions:
REMARK  status: ('A' for Active; 'I' for Inactive)
REMARK    1  A    between atoms: C_5  and  C_7
REMARK    2  A    between atoms: C_8  and  C_9
REMARK    3  A    between atoms: C_8  and  C_14
REMARK    4  A    between atoms: C_9  and  O_11
REMARK    5  A    between atoms: O_11  and  C_12
REMARK    6  A    between atoms: C_12  and  C_13
REMARK    7  A    between atoms: C_14  and  O_16
REMARK    8  A    between atoms: O_16  and  C_17
REMARK    9  A    between atoms: C_17  and  C_18
REMARK                            x       y       z     vdW  Elec       q    Type
REMARK                         _______ _______ _______ _____ _____    ______ ____
ROOT
ATOM      4  C   UNL     1      -7.245  -2.250   0.000  0.00  0.00    +0.030 C 
ATOM      5  C   UNL     1      -5.946  -3.000   0.000  0.00  0.00    +0.143 C 
ENDROOT
BRANCH   4   3
ATOM      1  C   UNL     1     -11.142  -3.000   0.000  0.00  0.00    +0.016 A 
ATOM      2  C   UNL     1      -9.843  -2.250   0.000  0.00  0.00    +0.009 A 
ATOM      3  C   UNL     1      -8.544  -3.000   0.000  0.00  0.00    -0.024 A 
ATOM     16  C   UNL     1      -8.544  -4.500   0.000  0.00  0.00    +0.009 A 
ATOM     17  C   UNL     1      -9.843  -5.250   0.000  0.00  0.00    +0.016 A 
ATOM     18  C   UNL     1     -11.142  -4.500   0.000  0.00  0.00    +0.018 A 
ATOM     19 BR   UNL     1     -12.441  -5.250   0.000  0.00  0.00    -0.050 Br
ENDBRANCH   4   3
BRANCH   5   6
ATOM      6  C   UNL     1      -5.946  -4.500   0.000  0.00  0.00    +0.346 C 
ATOM     10  O   UNL     1      -7.245  -5.250   0.000  0.00  0.00    -0.245 OA
BRANCH   6   7
ATOM      7  O   UNL     1      -4.647  -5.250   0.000  0.00  0.00    -0.461 OA
BRANCH   7   8
ATOM      8  C   UNL     1      -3.348  -4.500   0.000  0.00  0.00    +0.229 C 
ATOM      9  C   UNL     1      -2.049  -5.250   0.000  0.00  0.00    +0.048 C 
ENDBRANCH   7   8
ENDBRANCH   6   7
ENDBRANCH   5   6
BRANCH   5  11
ATOM     11  C   UNL     1      -4.647  -2.250   0.000  0.00  0.00    +0.346 C 
ATOM     15  O   UNL     1      -4.647  -0.750   0.000  0.00  0.00    -0.245 OA
BRANCH  11  12
ATOM     12  O   UNL     1      -3.348  -3.000   0.000  0.00  0.00    -0.461 OA
BRANCH  12  13
ATOM     13  C   UNL     1      -2.049  -2.250   0.000  0.00  0.00    +0.229 C 
ATOM     14  C   UNL     1      -0.750  -3.000   0.000  0.00  0.00    +0.048 C 
ENDBRANCH  12  13
ENDBRANCH  11  12
ENDBRANCH   5  11
TORSDOF 7