REMARK  Name = 92794
REMARK  5 active torsions:
REMARK  status: ('A' for Active; 'I' for Inactive)
REMARK    1  A    between atoms: C_3  and  N_17
REMARK    2  A    between atoms: C_4  and  O_18
REMARK    3  A    between atoms: C_8  and  N_17
REMARK    4  A    between atoms: C_10  and  N_16
REMARK    5  A    between atoms: C_11  and  N_13
REMARK                            x       y       z     vdW  Elec       q    Type
REMARK                         _______ _______ _______ _____ _____    ______ ____
ROOT
ATOM      5  C   UNL     1       5.571  -3.650   0.000  0.00  0.00    +0.053 A 
ATOM      6  C   UNL     1       4.272  -2.900   0.000  0.00  0.00    +0.052 A 
ATOM     10  C   UNL     1       4.272  -1.400   0.000  0.00  0.00    +0.108 A 
ATOM     11  C   UNL     1       5.571  -0.649   0.000  0.00  0.00    +0.275 A 
ATOM     15  C   UNL     1       6.870  -1.400   0.000  0.00  0.00    +0.086 A 
ATOM     16  C   UNL     1       6.870  -2.900   0.000  0.00  0.00    +0.032 A 
ENDROOT
BRANCH   6   7
ATOM      7  N   UNL     1       2.973  -3.650   0.000  0.00  0.00    -0.356 N 
ATOM      8  H   UNL     1       2.973  -4.634   0.000  0.00  0.00    +0.142 HD
ATOM      9  H   UNL     1       2.120  -3.157   0.000  0.00  0.00    +0.142 HD
ENDBRANCH   6   7
BRANCH  11  12
ATOM     12  N   UNL     1       5.571   0.851   0.000  0.00  0.00    +0.080 N 
ATOM     13  O   UNL     1       4.272   1.601   0.000  0.00  0.00    +0.041 OA
ATOM     14  O   UNL     1       6.870   1.601   0.000  0.00  0.00    -0.576 OA
ENDBRANCH  11  12
BRANCH   5   3
ATOM      3  N   UNL     1       5.571  -5.149   0.000  0.00  0.00    -0.313 N 
ATOM      4  H   UNL     1       4.719  -5.642   0.000  0.00  0.00    +0.152 HD
BRANCH   3   2
ATOM      1  C   UNL     1       8.169  -5.149   0.000  0.00  0.00    +0.027 A 
ATOM      2  C   UNL     1       6.870  -5.899   0.000  0.00  0.00    +0.032 A 
ATOM     17  C   UNL     1       6.870  -7.399   0.000  0.00  0.00    +0.027 A 
ATOM     18  C   UNL     1       8.169  -8.149   0.000  0.00  0.00    +0.047 A 
ATOM     19  C   UNL     1       9.468  -7.399   0.000  0.00  0.00    +0.117 A 
ATOM     22  C   UNL     1       9.468  -5.899   0.000  0.00  0.00    +0.047 A 
BRANCH  19  20
ATOM     20  O   UNL     1      10.767  -8.149   0.000  0.00  0.00    -0.507 OA
ATOM     21  H   UNL     1      10.767  -9.086   0.000  0.00  0.00    +0.292 HD
ENDBRANCH  19  20
ENDBRANCH   3   2
ENDBRANCH   5   3
TORSDOF 5