REMARK  Name = 59776
REMARK  2 active torsions:
REMARK  status: ('A' for Active; 'I' for Inactive)
REMARK    1  A    between atoms: C_5  and  C_9
REMARK    2  A    between atoms: C_6  and  C_8
REMARK                            x       y       z     vdW  Elec       q    Type
REMARK                         _______ _______ _______ _____ _____    ______ ____
ROOT
ATOM      1  N   UNL     1       2.636  -3.258   0.000  0.00  0.00    -0.235 NA
ATOM      2  C   UNL     1       2.324  -4.725   0.000  0.00  0.00    +0.197 A 
ATOM      3  N   UNL     1       3.623  -5.475   0.000  0.00  0.00    -0.344 N 
ATOM      4  H   UNL     1       3.780  -6.967   0.000  0.00  0.00    +0.167 HD
ATOM      5  C   UNL     1       4.738  -4.471   0.000  0.00  0.00    +0.074 A 
ATOM     12  C   UNL     1       4.128  -3.101   0.000  0.00  0.00    +0.096 A 
ENDROOT
BRANCH   5   6
ATOM      6  C   UNL     1       6.205  -4.783   0.000  0.00  0.00    +0.000 A 
ATOM      7  C   UNL     1       6.668  -6.210   0.000  0.00  0.00    +0.010 A 
ATOM      8  C   UNL     1       8.136  -6.521   0.000  0.00  0.00    +0.001 A 
ATOM      9  C   UNL     1       9.139  -5.407   0.000  0.00  0.00    +0.000 A 
ATOM     10  C   UNL     1       8.676  -3.980   0.000  0.00  0.00    +0.001 A 
ATOM     11  C   UNL     1       7.208  -3.668   0.000  0.00  0.00    +0.010 A 
ENDBRANCH   5   6
BRANCH  12  13
ATOM     13  C   UNL     1       4.878  -1.802   0.000  0.00  0.00    +0.002 A 
ATOM     14  C   UNL     1       6.378  -1.802   0.000  0.00  0.00    +0.010 A 
ATOM     15  C   UNL     1       7.128  -0.503   0.000  0.00  0.00    +0.001 A 
ATOM     16  C   UNL     1       6.378   0.796   0.000  0.00  0.00    +0.000 A 
ATOM     17  C   UNL     1       4.878   0.796   0.000  0.00  0.00    +0.001 A 
ATOM     18  C   UNL     1       4.128  -0.503   0.000  0.00  0.00    +0.010 A 
ENDBRANCH  12  13
TORSDOF 2