REMARK  Name = 8179
REMARK  1 active torsions:
REMARK  status: ('A' for Active; 'I' for Inactive)
REMARK    1  A    between atoms: C_6  and  C_10
REMARK                            x       y       z     vdW  Elec       q    Type
REMARK                         _______ _______ _______ _____ _____    ______ ____
ROOT
ATOM      1  N   UNL     1       5.258   0.013   0.000  0.00  0.00    -0.136 NA
ATOM      2  N   UNL     1       6.262  -1.102   0.000  0.00  0.00    -0.257 N 
ATOM      3  H   UNL     1       5.950  -2.569   0.000  0.00  0.00    +0.191 HD
ATOM      4  C   UNL     1       7.632  -0.492   0.000  0.00  0.00    +0.158 A 
ATOM     11  N   UNL     1       7.475   1.000   0.000  0.00  0.00    -0.194 NA
ATOM     12  C   UNL     1       6.008   1.312   0.000  0.00  0.00    +0.242 A 
ATOM     13  N   UNL     1       5.398   2.682   0.000  0.00  0.00    -0.237 N 
ATOM     14  H   UNL     1       5.977   3.479   0.000  0.00  0.00    +0.159 HD
ATOM     15  C   UNL     1       3.906   2.839   0.000  0.00  0.00    +0.304 C 
ATOM     16  O   UNL     1       3.296   4.209   0.000  0.00  0.00    -0.253 OA
ATOM     17  N   UNL     1       3.025   1.625   0.000  0.00  0.00    -0.313 N 
ATOM     18  H   UNL     1       3.425   0.726   0.000  0.00  0.00    +0.146 HD
ATOM     19  H   UNL     1       2.045   1.728   0.000  0.00  0.00    +0.146 HD
ENDROOT
BRANCH   4   5
ATOM      5  C   UNL     1       8.931  -1.242   0.000  0.00  0.00    +0.019 A 
ATOM      6  C   UNL     1       8.931  -2.742   0.000  0.00  0.00    +0.011 A 
ATOM      7  C   UNL     1      10.230  -3.492   0.000  0.00  0.00    +0.001 A 
ATOM      8  C   UNL     1      11.529  -2.742   0.000  0.00  0.00    +0.000 A 
ATOM      9  C   UNL     1      11.529  -1.242   0.000  0.00  0.00    +0.001 A 
ATOM     10  C   UNL     1      10.230  -0.492   0.000  0.00  0.00    +0.011 A 
ENDBRANCH   4   5
TORSDOF 1