REMARK  Name = 80735
REMARK  8 active torsions:
REMARK  status: ('A' for Active; 'I' for Inactive)
REMARK    1  A    between atoms: O_1  and  C_12
REMARK    2  A    between atoms: O_1  and  C_16
REMARK    3  A    between atoms: C_3  and  N_36
REMARK    4  A    between atoms: C_5  and  N_37
REMARK    5  A    between atoms: C_10  and  N_33
REMARK    6  A    between atoms: C_18  and  N_32
REMARK    7  A    between atoms: C_22  and  N_29
REMARK    8  A    between atoms: C_24  and  N_26
REMARK                            x       y       z     vdW  Elec       q    Type
REMARK                         _______ _______ _______ _____ _____    ______ ____
ROOT
ATOM      1  O   UNL     1      -4.272  -8.899   0.000  0.00  0.00    -0.456 OA
ENDROOT
BRANCH   1   2
ATOM      2  C   UNL     1      -2.973  -8.149   0.000  0.00  0.00    +0.129 A 
ATOM      3  C   UNL     1      -2.973  -6.649   0.000  0.00  0.00    +0.048 A 
ATOM      4  C   UNL     1      -1.674  -5.899   0.000  0.00  0.00    +0.027 A 
ATOM      5  C   UNL     1      -0.375  -6.649   0.000  0.00  0.00    +0.035 A 
ATOM     21  C   UNL     1      -0.375  -8.149   0.000  0.00  0.00    +0.027 A 
ATOM     22  C   UNL     1      -1.674  -8.899   0.000  0.00  0.00    +0.048 A 
BRANCH   5   6
ATOM      6  N   UNL     1       0.924  -5.899   0.000  0.00  0.00    -0.269 N 
ATOM      7  H   UNL     1       1.777  -6.392   0.000  0.00  0.00    +0.156 HD
ATOM      8  C   UNL     1       0.924  -4.399   0.000  0.00  0.00    +0.308 C 
ATOM      9  O   UNL     1      -0.375  -3.650   0.000  0.00  0.00    -0.252 OA
ATOM     10  N   UNL     1       2.223  -3.650   0.000  0.00  0.00    -0.269 N 
ATOM     11  H   UNL     1       2.223  -2.665   0.000  0.00  0.00    +0.156 HD
BRANCH  10  12
ATOM     12  C   UNL     1       3.522  -4.399   0.000  0.00  0.00    +0.035 A 
ATOM     13  C   UNL     1       4.821  -3.650   0.000  0.00  0.00    +0.030 A 
ATOM     14  C   UNL     1       6.120  -4.399   0.000  0.00  0.00    +0.086 A 
ATOM     15  C   UNL     1       6.120  -5.899   0.000  0.00  0.00    +0.273 A 
ATOM     19  C   UNL     1       4.821  -6.649   0.000  0.00  0.00    +0.086 A 
ATOM     20  C   UNL     1       3.522  -5.899   0.000  0.00  0.00    +0.030 A 
BRANCH  15  16
ATOM     16  N   UNL     1       7.419  -6.649   0.000  0.00  0.00    +0.080 N 
ATOM     17  O   UNL     1       8.718  -5.899   0.000  0.00  0.00    +0.041 OA
ATOM     18  O   UNL     1       7.419  -8.149   0.000  0.00  0.00    -0.576 OA
ENDBRANCH  15  16
ENDBRANCH  10  12
ENDBRANCH   5   6
ENDBRANCH   1   2
BRANCH   1  23
ATOM     23  C   UNL     1      -4.272 -10.400   0.000  0.00  0.00    +0.129 A 
ATOM     24  C   UNL     1      -5.571 -11.150   0.000  0.00  0.00    +0.048 A 
ATOM     25  C   UNL     1      -5.571 -12.650   0.000  0.00  0.00    +0.027 A 
ATOM     26  C   UNL     1      -4.272 -13.400   0.000  0.00  0.00    +0.035 A 
ATOM     42  C   UNL     1      -2.973 -12.650   0.000  0.00  0.00    +0.027 A 
ATOM     43  C   UNL     1      -2.973 -11.150   0.000  0.00  0.00    +0.048 A 
BRANCH  26  27
ATOM     27  N   UNL     1      -4.272 -14.900   0.000  0.00  0.00    -0.269 N 
ATOM     28  H   UNL     1      -5.125 -15.392   0.000  0.00  0.00    +0.156 HD
ATOM     29  C   UNL     1      -2.973 -15.650   0.000  0.00  0.00    +0.308 C 
ATOM     30  N   UNL     1      -1.674 -14.900   0.000  0.00  0.00    -0.269 N 
ATOM     31  H   UNL     1      -1.674 -13.915   0.000  0.00  0.00    +0.156 HD
ATOM     41  O   UNL     1      -2.973 -17.150   0.000  0.00  0.00    -0.252 OA
BRANCH  30  32
ATOM     32  C   UNL     1      -0.375 -15.650   0.000  0.00  0.00    +0.035 A 
ATOM     33  C   UNL     1      -0.375 -17.150   0.000  0.00  0.00    +0.030 A 
ATOM     34  C   UNL     1       0.924 -17.900   0.000  0.00  0.00    +0.086 A 
ATOM     35  C   UNL     1       2.223 -17.150   0.000  0.00  0.00    +0.273 A 
ATOM     39  C   UNL     1       2.223 -15.650   0.000  0.00  0.00    +0.086 A 
ATOM     40  C   UNL     1       0.924 -14.900   0.000  0.00  0.00    +0.030 A 
BRANCH  35  36
ATOM     36  N   UNL     1       3.522 -17.900   0.000  0.00  0.00    +0.080 N 
ATOM     37  O   UNL     1       3.522 -19.400   0.000  0.00  0.00    +0.041 OA
ATOM     38  O   UNL     1       4.821 -17.150   0.000  0.00  0.00    -0.576 OA
ENDBRANCH  35  36
ENDBRANCH  30  32
ENDBRANCH  26  27
ENDBRANCH   1  23
TORSDOF 8