REMARK  Name = 4292
REMARK  5 active torsions:
REMARK  status: ('A' for Active; 'I' for Inactive)
REMARK    1  A    between atoms: C_12  and  N_17
REMARK    2  A    between atoms: C_16  and  S_20
REMARK    3  A    between atoms: S_20  and  C_21
REMARK    4  A    between atoms: C_21  and  C_22
REMARK    5  A    between atoms: C_22  and  C_23
REMARK                            x       y       z     vdW  Elec       q    Type
REMARK                         _______ _______ _______ _____ _____    ______ ____
ROOT
ATOM      7  C   UNL     1      -8.899   1.674   0.000  0.00  0.00    +0.156 C 
ENDROOT
BRANCH   7   5
ATOM      5  C   UNL     1      -7.399   1.674   0.000  0.00  0.00    +0.173 C 
ATOM      6  O   UNL     1      -6.649   2.973   0.000  0.00  0.00    -0.291 OA
BRANCH   5   4
ATOM      1  C   UNL     1      -2.900  -0.924   0.000  0.00  0.00    +0.008 A 
ATOM      2  C   UNL     1      -4.399  -0.924   0.000  0.00  0.00    -0.017 A 
ATOM      3  C   UNL     1      -5.149   0.375   0.000  0.00  0.00    +0.020 A 
ATOM      4  C   UNL     1      -6.649   0.375   0.000  0.00  0.00    +0.019 A 
ATOM     21  C   UNL     1      -7.399  -0.924   0.000  0.00  0.00    +0.012 A 
ATOM     22  C   UNL     1      -6.649  -2.223   0.000  0.00  0.00    +0.009 A 
ATOM     23  C   UNL     1      -5.149  -2.223   0.000  0.00  0.00    -0.018 A 
ATOM     24  C   UNL     1      -4.399  -3.522   0.000  0.00  0.00    +0.008 A 
ATOM     25  C   UNL     1      -2.900  -3.522   0.000  0.00  0.00    +0.001 A 
ATOM     26  C   UNL     1      -2.150  -2.223   0.000  0.00  0.00    +0.001 A 
ENDBRANCH   5   4
ENDBRANCH   7   5
BRANCH   7   8
ATOM      8  S   UNL     1      -9.649   2.973   0.000  0.00  0.00    -0.091 S 
BRANCH   8   9
ATOM      9  C   UNL     1     -11.150   2.973   0.000  0.00  0.00    +0.136 A 
ATOM     10  S   UNL     1     -12.031   4.187   0.000  0.00  0.00    -0.061 S 
ATOM     11  C   UNL     1     -13.458   3.723   0.000  0.00  0.00    +0.046 A 
ATOM     12  C   UNL     1     -13.458   2.223   0.000  0.00  0.00    +0.080 A 
ATOM     13  C   UNL     1     -14.757   1.473   0.000  0.00  0.00    +0.035 A 
ATOM     14  C   UNL     1     -16.056   2.223   0.000  0.00  0.00    +0.086 A 
ATOM     15  C   UNL     1     -16.056   3.723   0.000  0.00  0.00    +0.274 A 
ATOM     19  C   UNL     1     -14.757   4.473   0.000  0.00  0.00    +0.101 A 
ATOM     20  N   UNL     1     -12.031   1.760   0.000  0.00  0.00    -0.233 NA
BRANCH  15  16
ATOM     16  N   UNL     1     -17.355   4.473   0.000  0.00  0.00    +0.080 N 
ATOM     17  O   UNL     1     -17.355   5.973   0.000  0.00  0.00    +0.041 OA
ATOM     18  O   UNL     1     -18.654   3.723   0.000  0.00  0.00    -0.576 OA
ENDBRANCH  15  16
ENDBRANCH   8   9
ENDBRANCH   7   8
TORSDOF 5