REMARK  Name = 479
REMARK  3 active torsions:
REMARK  status: ('A' for Active; 'I' for Inactive)
REMARK    1  A    between atoms: C_13  and  C_22
REMARK    2  A    between atoms: C_17  and  C_19
REMARK    3  A    between atoms: C_19  and  C_22
REMARK                            x       y       z     vdW  Elec       q    Type
REMARK                         _______ _______ _______ _____ _____    ______ ____
ROOT
ATOM      1  O   UNL     1      -3.621   2.956   0.000  0.00  0.00    -0.252 OA
ATOM      2  C   UNL     1      -2.407   3.838   0.000  0.00  0.00    +0.307 C 
ATOM      3  N   UNL     1      -2.407   5.338   0.000  0.00  0.00    -0.281 N 
ATOM      4  H   UNL     1      -3.621   6.220   0.000  0.00  0.00    +0.152 HD
ATOM      5  C   UNL     1      -0.981   5.802   0.000  0.00  0.00    +0.143 C 
ATOM     13  C   UNL     1      -0.099   4.588   0.000  0.00  0.00    +0.249 C 
ATOM     14  O   UNL     1       1.401   4.588   0.000  0.00  0.00    -0.273 OA
ATOM     21  N   UNL     1      -0.981   3.375   0.000  0.00  0.00    -0.238 N 
ATOM     22  H   UNL     1      -0.517   1.948   0.000  0.00  0.00    +0.159 HD
ENDROOT
BRANCH   5  15
ATOM     15  C   UNL     1       0.319   6.552   0.000  0.00  0.00    +0.003 A 
ATOM     16  C   UNL     1       0.319   8.052   0.000  0.00  0.00    +0.117 A 
ATOM     17  N   UNL     1       1.617   8.802   0.000  0.00  0.00    -0.263 NA
ATOM     18  C   UNL     1       2.917   8.052   0.000  0.00  0.00    +0.111 A 
ATOM     19  C   UNL     1       2.917   6.552   0.000  0.00  0.00    +0.020 A 
ATOM     20  C   UNL     1       1.617   5.802   0.000  0.00  0.00    +0.009 A 
ENDBRANCH   5  15
BRANCH   5   6
ATOM      6  C   UNL     1      -1.085   7.298   0.000  0.00  0.00    +0.075 C 
BRANCH   6   7
ATOM      7  C   UNL     1      -2.433   7.955   0.000  0.00  0.00    -0.045 A 
ATOM      8  C   UNL     1      -2.538   9.452   0.000  0.00  0.00    +0.004 A 
ATOM      9  C   UNL     1      -3.886  10.109   0.000  0.00  0.00    +0.000 A 
ATOM     10  C   UNL     1      -5.130   9.271   0.000  0.00  0.00    +0.000 A 
ATOM     11  C   UNL     1      -5.025   7.774   0.000  0.00  0.00    +0.000 A 
ATOM     12  C   UNL     1      -3.677   7.117   0.000  0.00  0.00    +0.004 A 
ENDBRANCH   6   7
ENDBRANCH   5   6
TORSDOF 3