REMARK  Name = 80313
REMARK  1 active torsions:
REMARK  status: ('A' for Active; 'I' for Inactive)
REMARK    1  A    between atoms: N_3  and  C_12
REMARK                            x       y       z     vdW  Elec       q    Type
REMARK                         _______ _______ _______ _____ _____    ______ ____
ROOT
ATOM      1  O   UNL     1       0.129  -5.776   0.000  0.00  0.00    -0.287 OA
ATOM      2  C   UNL     1       0.129  -7.276   0.000  0.00  0.00    +0.197 C 
ATOM      3  C   UNL     1      -1.170  -8.026   0.000  0.00  0.00    +0.033 A 
ATOM      4  C   UNL     1      -2.469  -7.276   0.000  0.00  0.00    +0.012 A 
ATOM      5  C   UNL     1      -3.768  -8.026   0.000  0.00  0.00    +0.001 A 
ATOM      6  C   UNL     1      -3.768  -9.526   0.000  0.00  0.00    +0.001 A 
ATOM      7  C   UNL     1      -2.469 -10.276   0.000  0.00  0.00    +0.012 A 
ATOM      8  C   UNL     1      -1.170  -9.526   0.000  0.00  0.00    +0.033 A 
ATOM      9  C   UNL     1       0.129 -10.276   0.000  0.00  0.00    +0.195 C 
ATOM     10  C   UNL     1       1.429  -9.526   0.000  0.00  0.00    +0.035 A 
ATOM     11  C   UNL     1       2.728 -10.276   0.000  0.00  0.00    +0.012 A 
ATOM     12  C   UNL     1       4.027  -9.526   0.000  0.00  0.00    +0.003 A 
ATOM     13  C   UNL     1       4.027  -8.026   0.000  0.00  0.00    +0.028 A 
ATOM     14  C   UNL     1       2.728  -7.276   0.000  0.00  0.00    +0.079 A 
ATOM     24  O   UNL     1       0.129 -11.776   0.000  0.00  0.00    -0.287 OA
ATOM     25  C   UNL     1       1.429  -8.026   0.000  0.00  0.00    +0.058 A 
ENDROOT
BRANCH  14  15
ATOM     15  N   UNL     1       2.728  -5.776   0.000  0.00  0.00    -0.212 N 
ATOM     16  C   UNL     1       3.941  -4.894   0.000  0.00  0.00    +0.095 A 
ATOM     17  C   UNL     1       5.408  -5.206   0.000  0.00  0.00    +0.030 A 
ATOM     18  C   UNL     1       6.412  -4.091   0.000  0.00  0.00    +0.002 A 
ATOM     19  C   UNL     1       5.948  -2.665   0.000  0.00  0.00    +0.002 A 
ATOM     20  C   UNL     1       4.481  -2.353   0.000  0.00  0.00    +0.032 A 
ATOM     21  C   UNL     1       3.478  -3.468   0.000  0.00  0.00    +0.113 A 
ATOM     22  N   UNL     1       1.978  -3.468   0.000  0.00  0.00    -0.129 NA
ATOM     23  N   UNL     1       1.514  -4.894   0.000  0.00  0.00    -0.060 NA
ENDBRANCH  14  15
TORSDOF 1