REMARK  Name = 82769
REMARK  4 active torsions:
REMARK  status: ('A' for Active; 'I' for Inactive)
REMARK    1  A    between atoms: C_5  and  S_10
REMARK    2  A    between atoms: C_6  and  O_9
REMARK    3  A    between atoms: S_10  and  C_11
REMARK    4  A    between atoms: C_11  and  C_12
REMARK                            x       y       z     vdW  Elec       q    Type
REMARK                         _______ _______ _______ _____ _____    ______ ____
ROOT
ATOM      1  N   UNL     1      -5.946  -2.250   0.000  0.00  0.00    -0.306 N 
ATOM      2  H   UNL     1      -5.946  -0.750   0.000  0.00  0.00    +0.171 HD
ATOM      3  C   UNL     1      -7.245  -3.000   0.000  0.00  0.00    +0.197 A 
ATOM      6  C   UNL     1      -7.245  -4.500   0.000  0.00  0.00    +0.137 A 
ATOM      7  C   UNL     1      -5.946  -5.250   0.000  0.00  0.00    +0.277 A 
ATOM      8  N   UNL     1      -4.647  -4.500   0.000  0.00  0.00    -0.185 NA
ATOM      9  O   UNL     1      -5.946  -6.750   0.000  0.00  0.00    -0.266 OA
ATOM     10  C   UNL     1      -4.647  -3.000   0.000  0.00  0.00    +0.173 A 
ENDROOT
BRANCH   3   4
ATOM      4  O   UNL     1      -8.544  -2.250   0.000  0.00  0.00    -0.493 OA
ATOM      5  H   UNL     1      -8.544  -1.313   0.000  0.00  0.00    +0.294 HD
ENDBRANCH   3   4
BRANCH  10  11
ATOM     11  S   UNL     1      -3.348  -2.250   0.000  0.00  0.00    -0.088 S 
BRANCH  11  12
ATOM     12  C   UNL     1      -2.049  -3.000   0.000  0.00  0.00    +0.074 C 
ATOM     13  C   UNL     1      -0.750  -2.250   0.000  0.00  0.00    +0.016 C 
ENDBRANCH  11  12
ENDBRANCH  10  11
TORSDOF 3