REMARK  Name = 79139
REMARK  3 active torsions:
REMARK  status: ('A' for Active; 'I' for Inactive)
REMARK    1  A    between atoms: C_1  and  N_17
REMARK    2  A    between atoms: C_6  and  C_18
REMARK    3  A    between atoms: C_8  and  C_19
REMARK                            x       y       z     vdW  Elec       q    Type
REMARK                         _______ _______ _______ _____ _____    ______ ____
ROOT
ATOM      8  C   UNL     1       2.665  -1.615   0.000  0.00  0.00    +0.008 C 
ATOM      9  C   UNL     1       2.665  -3.115   0.000  0.00  0.00    +0.008 C 
ENDROOT
BRANCH   9  10
ATOM     10  C   UNL     1       3.964  -3.865   0.000  0.00  0.00    -0.024 A 
ATOM     11  C   UNL     1       5.263  -3.115   0.000  0.00  0.00    +0.018 A 
ATOM     12  C   UNL     1       6.562  -3.865   0.000  0.00  0.00    +0.001 A 
ATOM     13  C   UNL     1       7.861  -3.115   0.000  0.00  0.00    +0.011 A 
ATOM     14  C   UNL     1       9.160  -3.865   0.000  0.00  0.00    +0.020 A 
ATOM     15  C   UNL     1       9.160  -5.365   0.000  0.00  0.00    +0.111 A 
ATOM     16  N   UNL     1       7.861  -6.115   0.000  0.00  0.00    -0.255 NA
ATOM     17  C   UNL     1       6.562  -5.365   0.000  0.00  0.00    +0.071 A 
ATOM     18  C   UNL     1       5.263  -6.115   0.000  0.00  0.00    +0.029 A 
ATOM     19  C   UNL     1       3.964  -5.365   0.000  0.00  0.00    +0.010 A 
ENDBRANCH   9  10
BRANCH   8   7
ATOM      1  C   UNL     1      -1.232   0.635   0.000  0.00  0.00    +0.025 A 
ATOM      5  C   UNL     1      -1.232  -0.865   0.000  0.00  0.00    +0.023 A 
ATOM      6  C   UNL     1       0.067  -1.615   0.000  0.00  0.00    +0.010 A 
ATOM      7  C   UNL     1       1.366  -0.865   0.000  0.00  0.00    -0.025 A 
ATOM     20  C   UNL     1       1.366   0.635   0.000  0.00  0.00    +0.010 A 
ATOM     21  C   UNL     1       0.067   1.385   0.000  0.00  0.00    +0.023 A 
BRANCH   1   2
ATOM      2  N   UNL     1      -2.531   1.385   0.000  0.00  0.00    -0.358 N 
ATOM      3  H   UNL     1      -3.384   0.892   0.000  0.00  0.00    +0.142 HD
ATOM      4  H   UNL     1      -2.532   2.369   0.000  0.00  0.00    +0.142 HD
ENDBRANCH   1   2
ENDBRANCH   8   7
TORSDOF 3