REMARK  Name = 98938
REMARK  7 active torsions:
REMARK  status: ('A' for Active; 'I' for Inactive)
REMARK    1  A    between atoms: C_2  and  C_20
REMARK    2  A    between atoms: C_5  and  O_21
REMARK    3  A    between atoms: C_8  and  C_15
REMARK    4  A    between atoms: C_10  and  O_13
REMARK    5  A    between atoms: O_13  and  C_14
REMARK    6  A    between atoms: C_16  and  C_17
REMARK    7  A    between atoms: C_17  and  C_19
REMARK                            x       y       z     vdW  Elec       q    Type
REMARK                         _______ _______ _______ _____ _____    ______ ____
ROOT
ATOM      5  C   UNL     1      -2.973   6.649   0.000  0.00  0.00    +0.179 C 
ATOM      6  O   UNL     1      -1.674   5.899   0.000  0.00  0.00    -0.288 OA
ENDROOT
BRANCH   5   4
ATOM      3  C   UNL     1      -5.571   6.649   0.000  0.00  0.00    +0.015 C 
ATOM      4  C   UNL     1      -4.272   5.899   0.000  0.00  0.00    +0.051 C 
BRANCH   3   2
ATOM      1  C   UNL     1      -6.870   4.399   0.000  0.00  0.00    +0.011 A 
ATOM      2  C   UNL     1      -6.870   5.899   0.000  0.00  0.00    +0.017 A 
ATOM     17  C   UNL     1      -8.169   6.649   0.000  0.00  0.00    +0.124 A 
ATOM     20  C   UNL     1      -9.468   5.899   0.000  0.00  0.00    +0.046 A 
ATOM     21  C   UNL     1      -9.468   4.399   0.000  0.00  0.00    +0.004 A 
ATOM     22  C   UNL     1      -8.169   3.650   0.000  0.00  0.00    +0.001 A 
BRANCH  17  18
ATOM     18  O   UNL     1      -8.169   8.149   0.000  0.00  0.00    -0.506 OA
ATOM     19  H   UNL     1      -7.358   8.618   0.000  0.00  0.00    +0.292 HD
ENDBRANCH  17  18
ENDBRANCH   3   2
ENDBRANCH   5   4
BRANCH   5   7
ATOM      7  C   UNL     1      -2.973   8.149   0.000  0.00  0.00    +0.051 C 
ATOM      8  C   UNL     1      -1.674   8.899   0.000  0.00  0.00    +0.015 C 
BRANCH   8   9
ATOM      9  C   UNL     1      -1.674  10.400   0.000  0.00  0.00    +0.017 A 
ATOM     10  C   UNL     1      -2.973  11.150   0.000  0.00  0.00    +0.127 A 
ATOM     13  C   UNL     1      -2.973  12.650   0.000  0.00  0.00    +0.046 A 
ATOM     14  C   UNL     1      -1.674  13.400   0.000  0.00  0.00    +0.004 A 
ATOM     15  C   UNL     1      -0.375  12.650   0.000  0.00  0.00    +0.001 A 
ATOM     16  C   UNL     1      -0.375  11.150   0.000  0.00  0.00    +0.011 A 
BRANCH  10  11
ATOM     11  O   UNL     1      -4.272  10.400   0.000  0.00  0.00    -0.495 OA
ATOM     12  C   UNL     1      -4.272   8.899   0.000  0.00  0.00    +0.277 C 
ENDBRANCH  10  11
ENDBRANCH   8   9
ENDBRANCH   5   7
TORSDOF 6