REMARK  Name = 6844
REMARK  3 active torsions:
REMARK  status: ('A' for Active; 'I' for Inactive)
REMARK    1  A    between atoms: C_6  and  C_9
REMARK    2  A    between atoms: C_12  and  C_21
REMARK    3  A    between atoms: C_17  and  C_21
REMARK                            x       y       z     vdW  Elec       q    Type
REMARK                         _______ _______ _______ _____ _____    ______ ____
ROOT
ATOM      1  O   UNL     1      -6.770  -4.774   0.000  0.00  0.00    -0.291 OA
ATOM      2  C   UNL     1      -5.471  -5.524   0.000  0.00  0.00    +0.181 C 
ATOM      3  C   UNL     1      -5.471  -7.024   0.000  0.00  0.00    +0.239 C 
ATOM     12  C   UNL     1      -4.172  -7.774   0.000  0.00  0.00    +0.331 C 
ATOM     13  O   UNL     1      -2.873  -7.024   0.000  0.00  0.00    -0.424 OA
ATOM     14  C   UNL     1      -2.873  -5.524   0.000  0.00  0.00    +0.142 C 
ATOM     21  O   UNL     1      -4.172  -9.274   0.000  0.00  0.00    -0.249 OA
ATOM     22  C   UNL     1      -4.172  -4.774   0.000  0.00  0.00    +0.094 C 
ENDROOT
BRANCH  14  15
ATOM     15  C   UNL     1      -1.574  -4.774   0.000  0.00  0.00    +0.017 A 
ATOM     16  C   UNL     1      -0.275  -5.524   0.000  0.00  0.00    +0.011 A 
ATOM     17  C   UNL     1       1.025  -4.774   0.000  0.00  0.00    +0.001 A 
ATOM     18  C   UNL     1       1.025  -3.275   0.000  0.00  0.00    +0.000 A 
ATOM     19  C   UNL     1      -0.275  -2.525   0.000  0.00  0.00    +0.001 A 
ATOM     20  C   UNL     1      -1.574  -3.275   0.000  0.00  0.00    +0.011 A 
ENDBRANCH  14  15
BRANCH   3   4
ATOM      4  C   UNL     1      -6.770  -7.774   0.000  0.00  0.00    +0.184 C 
ATOM      5  O   UNL     1      -8.069  -7.024   0.000  0.00  0.00    -0.291 OA
BRANCH   4   6
ATOM      6  C   UNL     1      -6.770  -9.274   0.000  0.00  0.00    +0.019 A 
ATOM      7  C   UNL     1      -5.471 -10.025   0.000  0.00  0.00    +0.011 A 
ATOM      8  C   UNL     1      -5.471 -11.525   0.000  0.00  0.00    +0.001 A 
ATOM      9  C   UNL     1      -6.770 -12.275   0.000  0.00  0.00    +0.000 A 
ATOM     10  C   UNL     1      -8.069 -11.525   0.000  0.00  0.00    +0.001 A 
ATOM     11  C   UNL     1      -8.069 -10.025   0.000  0.00  0.00    +0.011 A 
ENDBRANCH   4   6
ENDBRANCH   3   4
TORSDOF 3