REMARK  Name = 45536
REMARK  3 active torsions:
REMARK  status: ('A' for Active; 'I' for Inactive)
REMARK    1  A    between atoms: N_2  and  C_9
REMARK    2  A    between atoms: N_3  and  C_10
REMARK    3  A    between atoms: C_11  and  O_20
REMARK                            x       y       z     vdW  Elec       q    Type
REMARK                         _______ _______ _______ _____ _____    ______ ____
ROOT
ATOM      9  C   UNL     1       6.221  -1.226   0.000  0.00  0.00    +0.135 A 
ATOM     10  C   UNL     1       7.520  -1.976   0.000  0.00  0.00    +0.013 A 
ATOM     11  C   UNL     1       7.520  -3.475   0.000  0.00  0.00    +0.011 A 
ATOM     12  C   UNL     1       8.819  -4.226   0.000  0.00  0.00    +0.001 A 
ATOM     13  C   UNL     1      10.118  -3.475   0.000  0.00  0.00    +0.001 A 
ATOM     14  C   UNL     1      10.118  -1.976   0.000  0.00  0.00    +0.008 A 
ATOM     15  C   UNL     1       8.819  -1.226   0.000  0.00  0.00    -0.016 A 
ATOM     16  C   UNL     1       8.819   0.275   0.000  0.00  0.00    +0.012 A 
ATOM     17  C   UNL     1       7.520   1.025   0.000  0.00  0.00    +0.048 A 
ATOM     18  C   UNL     1       6.221   0.275   0.000  0.00  0.00    +0.144 A 
ENDROOT
BRANCH   9   8
ATOM      7  N   UNL     1       3.623  -1.226   0.000  0.00  0.00    -0.149 NA
ATOM      8  N   UNL     1       4.922  -1.976   0.000  0.00  0.00    -0.145 NA
BRANCH   7   5
ATOM      1  F   UNL     1      -2.418  -4.713   0.000  0.00  0.00    -0.205 F 
ATOM      2  C   UNL     1      -1.119  -3.963   0.000  0.00  0.00    +0.124 A 
ATOM      3  C   UNL     1       0.180  -4.713   0.000  0.00  0.00    +0.040 A 
ATOM      4  C   UNL     1       1.479  -3.963   0.000  0.00  0.00    +0.032 A 
ATOM      5  C   UNL     1       1.479  -2.463   0.000  0.00  0.00    +0.086 A 
ATOM      6  C   UNL     1       0.180  -1.713   0.000  0.00  0.00    +0.032 A 
ATOM     21  C   UNL     1      -1.119  -2.463   0.000  0.00  0.00    +0.040 A 
ENDBRANCH   7   5
ENDBRANCH   9   8
BRANCH  18  19
ATOM     19  O   UNL     1       4.922   1.025   0.000  0.00  0.00    -0.505 OA
ATOM     20  H   UNL     1       4.922   1.961   0.000  0.00  0.00    +0.292 HD
ENDBRANCH  18  19
TORSDOF 3