REMARK  Name = 5564
REMARK  6 active torsions:
REMARK  status: ('A' for Active; 'I' for Inactive)
REMARK    1  A    between atoms: N_1  and  C_7
REMARK    2  A    between atoms: C_2  and  C_8
REMARK    3  A    between atoms: C_3  and  O_18
REMARK    4  A    between atoms: C_8  and  O_9
REMARK    5  A    between atoms: O_9  and  C_10
REMARK    6  A    between atoms: C_10  and  C_12
REMARK                            x       y       z     vdW  Elec       q    Type
REMARK                         _______ _______ _______ _____ _____    ______ ____
ROOT
ATOM      1  N   UNL     1      -2.327  -7.031   0.000  0.00  0.00    -0.299 NA
ATOM      2  C   UNL     1      -2.327  -8.126   0.000  0.00  0.00    +0.065 C 
ATOM      3  C   UNL     1      -3.388  -9.187   0.000  0.00  0.00    +0.021 C 
ATOM      4  C   UNL     1      -3.388 -10.687   0.000  0.00  0.00    +0.020 C 
ATOM      5  C   UNL     1      -0.128  -8.715   0.000  0.00  0.00    +0.072 C 
ATOM     16  C   UNL     1       0.622 -10.014   0.000  0.00  0.00    +0.124 C 
ATOM     19  C   UNL     1      -0.878 -10.014   0.000  0.00  0.00    +0.050 C 
ATOM     20  C   UNL     1      -2.327  -5.531   0.000  0.00  0.00    +0.105 C 
ATOM     21  C   UNL     1      -2.327  -9.626   0.000  0.00  0.00    +0.059 C 
ENDROOT
BRANCH  16  17
ATOM     17  O   UNL     1       1.921 -10.764   0.000  0.00  0.00    -0.391 OA
ATOM     18  H   UNL     1       1.921 -11.734   0.000  0.00  0.00    +0.210 HD
ENDBRANCH  16  17
BRANCH   5   6
ATOM      6  C   UNL     1       0.785  -7.525   0.000  0.00  0.00    +0.240 C 
BRANCH   6   7
ATOM      7  O   UNL     1       2.272  -7.721   0.000  0.00  0.00    -0.461 OA
BRANCH   7   8
ATOM      8  C   UNL     1       3.185  -6.531   0.000  0.00  0.00    +0.339 C 
ATOM     15  O   UNL     1       4.672  -6.727   0.000  0.00  0.00    -0.245 OA
BRANCH   8   9
ATOM      9  C   UNL     1       2.611  -5.145   0.000  0.00  0.00    +0.059 A 
ATOM     10  C   UNL     1       3.524  -3.955   0.000  0.00  0.00    +0.015 A 
ATOM     11  C   UNL     1       2.950  -2.569   0.000  0.00  0.00    +0.001 A 
ATOM     12  C   UNL     1       1.463  -2.373   0.000  0.00  0.00    +0.000 A 
ATOM     13  C   UNL     1       0.550  -3.563   0.000  0.00  0.00    +0.001 A 
ATOM     14  C   UNL     1       1.124  -4.949   0.000  0.00  0.00    +0.015 A 
ENDBRANCH   8   9
ENDBRANCH   7   8
ENDBRANCH   6   7
ENDBRANCH   5   6
TORSDOF 5