REMARK  Name = 522131
REMARK  3 active torsions:
REMARK  status: ('A' for Active; 'I' for Inactive)
REMARK    1  A    between atoms: C_5  and  N_18
REMARK    2  A    between atoms: C_7  and  O_19
REMARK    3  A    between atoms: C_10  and  N_15
REMARK                            x       y       z     vdW  Elec       q    Type
REMARK                         _______ _______ _______ _____ _____    ______ ____
ROOT
ATOM      7  N   UNL     1       3.623  -4.774   0.000  0.00  0.00    -0.269 N 
ATOM      8  H   UNL     1       2.770  -5.267   0.000  0.00  0.00    +0.156 HD
ATOM      9  C   UNL     1       4.922  -5.524   0.000  0.00  0.00    +0.308 C 
ATOM     10  N   UNL     1       6.221  -4.774   0.000  0.00  0.00    -0.266 N 
ATOM     11  H   UNL     1       6.221  -3.790   0.000  0.00  0.00    +0.156 HD
ATOM     20  O   UNL     1       4.922  -7.024   0.000  0.00  0.00    -0.252 OA
ENDROOT
BRANCH   7   6
ATOM      1 CL   UNL     1       6.221  -0.275   0.000  0.00  0.00    -0.082 Cl
ATOM      2  C   UNL     1       4.922  -1.025   0.000  0.00  0.00    +0.061 A 
ATOM      3  C   UNL     1       3.623  -0.275   0.000  0.00  0.00    +0.059 A 
ATOM      4  C   UNL     1       2.324  -1.025   0.000  0.00  0.00    +0.023 A 
ATOM      5  C   UNL     1       2.324  -2.525   0.000  0.00  0.00    +0.025 A 
ATOM      6  C   UNL     1       3.623  -3.275   0.000  0.00  0.00    +0.036 A 
ATOM     21 CL   UNL     1       3.623   1.226   0.000  0.00  0.00    -0.082 Cl
ATOM     22  C   UNL     1       4.922  -2.525   0.000  0.00  0.00    +0.044 A 
ENDBRANCH   7   6
BRANCH  10  12
ATOM     12  C   UNL     1       7.520  -5.524   0.000  0.00  0.00    +0.077 A 
ATOM     13  C   UNL     1       7.520  -7.024   0.000  0.00  0.00    +0.138 A 
ATOM     16  C   UNL     1       8.819  -7.774   0.000  0.00  0.00    +0.047 A 
ATOM     17  C   UNL     1      10.118  -7.024   0.000  0.00  0.00    +0.004 A 
ATOM     18  C   UNL     1      10.118  -5.524   0.000  0.00  0.00    +0.002 A 
ATOM     19  C   UNL     1       8.819  -4.774   0.000  0.00  0.00    +0.027 A 
BRANCH  13  14
ATOM     14  O   UNL     1       6.221  -7.774   0.000  0.00  0.00    -0.505 OA
ATOM     15  H   UNL     1       5.409  -7.306   0.000  0.00  0.00    +0.292 HD
ENDBRANCH  13  14
ENDBRANCH  10  12
TORSDOF 3