REMARK  Name = 6145
REMARK  4 active torsions:
REMARK  status: ('A' for Active; 'I' for Inactive)
REMARK    1  A    between atoms: C_2  and  C_8
REMARK    2  A    between atoms: C_4  and  C_9
REMARK    3  A    between atoms: C_8  and  C_17
REMARK    4  A    between atoms: C_9  and  C_11
REMARK                            x       y       z     vdW  Elec       q    Type
REMARK                         _______ _______ _______ _____ _____    ______ ____
ROOT
ATOM      1  C   UNL     1      -7.245  -2.250   0.000  0.00  0.00    +0.012 A 
ATOM      2  C   UNL     1      -5.946  -3.000   0.000  0.00  0.00    +0.033 A 
ATOM      3  C   UNL     1      -5.946  -4.500   0.000  0.00  0.00    +0.033 A 
ATOM      4  C   UNL     1      -7.245  -5.250   0.000  0.00  0.00    +0.012 A 
ATOM      5  C   UNL     1      -8.544  -4.500   0.000  0.00  0.00    +0.001 A 
ATOM     22  C   UNL     1      -8.544  -3.000   0.000  0.00  0.00    +0.001 A 
ENDROOT
BRANCH   3   6
ATOM      6  C   UNL     1      -4.647  -5.250   0.000  0.00  0.00    +0.194 C 
ATOM     13  O   UNL     1      -3.348  -4.500   0.000  0.00  0.00    -0.287 OA
BRANCH   6   7
ATOM      7  C   UNL     1      -4.647  -6.750   0.000  0.00  0.00    +0.022 A 
ATOM      8  C   UNL     1      -3.348  -7.500   0.000  0.00  0.00    +0.012 A 
ATOM      9  C   UNL     1      -3.348  -9.000   0.000  0.00  0.00    +0.001 A 
ATOM     10  C   UNL     1      -4.647  -9.750   0.000  0.00  0.00    +0.000 A 
ATOM     11  C   UNL     1      -5.946  -9.000   0.000  0.00  0.00    +0.001 A 
ATOM     12  C   UNL     1      -5.946  -7.500   0.000  0.00  0.00    +0.012 A 
ENDBRANCH   6   7
ENDBRANCH   3   6
BRANCH   2  14
ATOM     14  C   UNL     1      -4.647  -2.250   0.000  0.00  0.00    +0.194 C 
ATOM     21  O   UNL     1      -3.348  -3.000   0.000  0.00  0.00    -0.287 OA
BRANCH  14  15
ATOM     15  C   UNL     1      -4.647  -0.750   0.000  0.00  0.00    +0.022 A 
ATOM     16  C   UNL     1      -5.946   0.000   0.000  0.00  0.00    +0.012 A 
ATOM     17  C   UNL     1      -5.946   1.500   0.000  0.00  0.00    +0.001 A 
ATOM     18  C   UNL     1      -4.647   2.250   0.000  0.00  0.00    +0.000 A 
ATOM     19  C   UNL     1      -3.348   1.500   0.000  0.00  0.00    +0.001 A 
ATOM     20  C   UNL     1      -3.348   0.000   0.000  0.00  0.00    +0.012 A 
ENDBRANCH  14  15
ENDBRANCH   2  14
TORSDOF 4