REMARK  Name = 84126
REMARK  8 active torsions:
REMARK  status: ('A' for Active; 'I' for Inactive)
REMARK    1  A    between atoms: N_5  and  C_9
REMARK    2  A    between atoms: N_6  and  C_12
REMARK    3  A    between atoms: C_10  and  N_20
REMARK    4  A    between atoms: C_14  and  AS_21
REMARK    5  A    between atoms: C_17  and  S_18
REMARK    6  A    between atoms: S_18  and  C_19
REMARK    7  A    between atoms: AS_21  and  O_22
REMARK    8  A    between atoms: AS_21  and  O_23
REMARK                            x       y       z     vdW  Elec       q    Type
REMARK                         _______ _______ _______ _____ _____    ______ ____
ROOT
ATOM     10  N   UNL     1      -1.450   2.678   0.000  0.00  0.00    +0.000 NA
ATOM     11  N   UNL     1       0.030   2.919   0.000  0.00  0.00    +0.000 NA
ENDROOT
BRANCH  10   3
ATOM      1  N   UNL     1      -4.829   4.760   0.000  0.00  0.00    +0.000 NA
ATOM      2  C   UNL     1      -3.880   3.598   0.000  0.00  0.00    +0.000 A 
ATOM      3  C   UNL     1      -2.399   3.839   0.000  0.00  0.00    +0.000 A 
ATOM      4  C   UNL     1      -1.868   5.242   0.000  0.00  0.00    +0.000 A 
ATOM      8  N   UNL     1      -2.817   6.404   0.000  0.00  0.00    +0.000 N 
ATOM      9  H   UNL     1      -2.286   7.806   0.000  0.00  0.00    +0.000 HD
ATOM     24  O   UNL     1      -4.411   2.196   0.000  0.00  0.00    +0.000 OA
ATOM     25  C   UNL     1      -4.297   6.162   0.000  0.00  0.00    +0.000 A 
BRANCH   4   5
ATOM      5  N   UNL     1      -0.387   5.483   0.000  0.00  0.00    +0.000 N 
ATOM      6  H   UNL     1      -0.039   6.404   0.000  0.00  0.00    +0.000 HD
ATOM      7  H   UNL     1       0.236   4.721   0.000  0.00  0.00    +0.000 HD
ENDBRANCH   4   5
BRANCH  25  26
ATOM     26  S   UNL     1      -5.247   7.324   0.000  0.00  0.00    +0.000 S 
ATOM     27  C   UNL     1      -6.727   7.083   0.000  0.00  0.00    +0.000 C 
ENDBRANCH  25  26
ENDBRANCH  10   3
BRANCH  11  12
ATOM     12  C   UNL     1       1.565   1.597   0.000  0.00  0.00    +0.000 A 
ATOM     13  C   UNL     1       2.981   2.092   0.000  0.00  0.00    +0.000 A 
ATOM     14  C   UNL     1       4.117   1.113   0.000  0.00  0.00    +0.000 A 
ATOM     15  C   UNL     1       3.837  -0.361   0.000  0.00  0.00    +0.000 A 
ATOM     22  C   UNL     1       2.421  -0.855   0.000  0.00  0.00    +0.000 A 
ATOM     23  C   UNL     1       1.285   0.124   0.000  0.00  0.00    +0.000 A 
BRANCH  15  16
ATOM     16 AS   UNL     1       5.372  -1.683   0.000  0.00  0.00    +0.000 As
ATOM     21  O   UNL     1       6.867  -1.571   0.000  0.00  0.00    +0.000 OA
BRANCH  16  17
ATOM     17  O   UNL     1       4.877  -0.267   0.000  0.00  0.00    +0.000 OA
ATOM     18  H   UNL     1       5.510   0.468   0.000  0.00  0.00    +0.000 HD
ENDBRANCH  16  17
BRANCH  16  19
ATOM     19  O   UNL     1       4.720  -3.034   0.000  0.00  0.00    +0.000 OA
ATOM     20  H   UNL     1       3.753  -3.106   0.000  0.00  0.00    +0.000 HD
ENDBRANCH  16  19
ENDBRANCH  15  16
ENDBRANCH  11  12
TORSDOF 7