REMARK  Name = 92937
REMARK  1 active torsions:
REMARK  status: ('A' for Active; 'I' for Inactive)
REMARK    1  A    between atoms: N_1  and  C_20
REMARK                            x       y       z     vdW  Elec       q    Type
REMARK                         _______ _______ _______ _____ _____    ______ ____
ROOT
ATOM      1  N   UNL     1      -5.653  -3.485   0.000  0.00  0.00    -0.342 N 
ATOM      2  C   UNL     1      -5.653  -1.985   0.000  0.00  0.00    +0.149 C 
ATOM      3  C   UNL     1      -6.866  -4.367   0.000  0.00  0.00    +0.050 A 
ATOM      4  C   UNL     1      -8.333  -4.055   0.000  0.00  0.00    +0.026 A 
ATOM      5  C   UNL     1      -9.337  -5.169   0.000  0.00  0.00    +0.002 A 
ATOM      6  C   UNL     1      -8.874  -6.596   0.000  0.00  0.00    +0.001 A 
ATOM      7  C   UNL     1      -7.406  -6.908   0.000  0.00  0.00    +0.010 A 
ATOM      8  C   UNL     1      -6.403  -5.793   0.000  0.00  0.00    +0.008 A 
ATOM      9  C   UNL     1      -4.903  -5.793   0.000  0.00  0.00    +0.008 A 
ATOM     10  C   UNL     1      -3.899  -6.908   0.000  0.00  0.00    +0.011 A 
ATOM     11  C   UNL     1      -2.432  -6.596   0.000  0.00  0.00    +0.013 A 
ATOM     12  C   UNL     1      -1.968  -5.169   0.000  0.00  0.00    +0.034 A 
ATOM     13  C   UNL     1      -2.972  -4.055   0.000  0.00  0.00    +0.056 A 
ATOM     14  C   UNL     1      -2.508  -2.628   0.000  0.00  0.00    +0.189 C 
ATOM     15  C   UNL     1      -1.041  -2.316   0.000  0.00  0.00    +0.055 C 
ATOM     16  C   UNL     1      -0.037  -3.431   0.000  0.00  0.00    +0.055 C 
ATOM     17  O   UNL     1      -3.512  -1.513   0.000  0.00  0.00    -0.287 OA
ATOM     18  C   UNL     1      -0.501  -4.857   0.000  0.00  0.00    +0.187 C 
ATOM     19  O   UNL     1       0.503  -5.972   0.000  0.00  0.00    -0.287 OA
ATOM     20  C   UNL     1      -4.439  -4.367   0.000  0.00  0.00    +0.061 A 
ENDROOT
TORSDOF 0