REMARK  Name = 60303
REMARK  6 active torsions:
REMARK  status: ('A' for Active; 'I' for Inactive)
REMARK    1  A    between atoms: C_3  and  O_18
REMARK    2  A    between atoms: C_6  and  N_17
REMARK    3  A    between atoms: C_8  and  C_14
REMARK    4  A    between atoms: C_10  and  N_17
REMARK    5  A    between atoms: C_14  and  O_16
REMARK    6  A    between atoms: O_18  and  C_19
REMARK                            x       y       z     vdW  Elec       q    Type
REMARK                         _______ _______ _______ _____ _____    ______ ____
ROOT
ATOM      1 CL   UNL     1      -9.843  -7.500   0.000  0.00  0.00    -0.083 Cl
ATOM      2  C   UNL     1      -9.843  -6.000   0.000  0.00  0.00    +0.043 A 
ATOM      3  C   UNL     1     -11.142  -5.250   0.000  0.00  0.00    +0.021 A 
ATOM      4  C   UNL     1     -11.142  -3.750   0.000  0.00  0.00    +0.018 A 
ATOM      5  C   UNL     1      -9.843  -3.000   0.000  0.00  0.00    +0.080 A 
ATOM     10  C   UNL     1      -8.544  -3.750   0.000  0.00  0.00    +0.047 A 
ATOM     21  C   UNL     1      -8.544  -5.250   0.000  0.00  0.00    +0.044 A 
ENDROOT
BRANCH   5   6
ATOM      6  C   UNL     1      -9.843  -1.500   0.000  0.00  0.00    +0.339 C 
ATOM      9  O   UNL     1     -11.142  -0.750   0.000  0.00  0.00    -0.245 OA
BRANCH   6   7
ATOM      7  O   UNL     1      -8.544  -0.750   0.000  0.00  0.00    -0.477 OA
ATOM      8  H   UNL     1      -7.733  -1.219   0.000  0.00  0.00    +0.295 HD
ENDBRANCH   6   7
ENDBRANCH   5   6
BRANCH  10  11
ATOM     11  N   UNL     1      -7.245  -3.000   0.000  0.00  0.00    -0.313 N 
ATOM     12  H   UNL     1      -7.245  -2.016   0.000  0.00  0.00    +0.152 HD
BRANCH  11  13
ATOM     13  C   UNL     1      -5.946  -3.750   0.000  0.00  0.00    +0.050 A 
ATOM     14  C   UNL     1      -4.647  -3.000   0.000  0.00  0.00    +0.137 A 
ATOM     15  N   UNL     1      -3.348  -3.750   0.000  0.00  0.00    -0.219 NA
ATOM     16  C   UNL     1      -3.348  -5.250   0.000  0.00  0.00    +0.214 A 
ATOM     19  C   UNL     1      -4.647  -6.000   0.000  0.00  0.00    +0.069 A 
ATOM     20  C   UNL     1      -5.946  -5.250   0.000  0.00  0.00    +0.030 A 
BRANCH  16  17
ATOM     17  O   UNL     1      -2.049  -6.000   0.000  0.00  0.00    -0.480 OA
ATOM     18  C   UNL     1      -0.750  -5.250   0.000  0.00  0.00    +0.279 C 
ENDBRANCH  16  17
ENDBRANCH  11  13
ENDBRANCH  10  11
TORSDOF 5