REMARK  Name = 92753
REMARK  5 active torsions:
REMARK  status: ('A' for Active; 'I' for Inactive)
REMARK    1  A    between atoms: N_2  and  N_10
REMARK    2  A    between atoms: C_5  and  C_12
REMARK    3  A    between atoms: C_5  and  C_13
REMARK    4  A    between atoms: C_6  and  C_8
REMARK    5  A    between atoms: C_6  and  C_9
REMARK                            x       y       z     vdW  Elec       q    Type
REMARK                         _______ _______ _______ _____ _____    ______ ____
ROOT
ATOM      1  S   UNL     1       3.818  -3.979   0.000  0.00  0.00    -0.038 S 
ATOM      2  C   UNL     1       4.699  -2.765   0.000  0.00  0.00    +0.075 C 
ATOM      3  C   UNL     1       4.236  -1.339   0.000  0.00  0.00    +0.096 C 
ATOM      4  C   UNL     1       3.486  -0.040   0.000  0.00  0.00    +0.040 C 
ATOM      5  C   UNL     1       2.866  -1.949   0.000  0.00  0.00    +0.040 C 
ATOM      6  N   UNL     1       5.449  -0.457   0.000  0.00  0.00    -0.186 N 
ATOM      9  C   UNL     1       6.663  -1.339   0.000  0.00  0.00    +0.113 C 
ATOM     10  C   UNL     1       8.033  -1.949   0.000  0.00  0.00    +0.054 C 
ATOM     11  C   UNL     1       7.413  -0.040   0.000  0.00  0.00    +0.054 C 
ATOM     12  N   UNL     1       6.199  -2.765   0.000  0.00  0.00    -0.318 N 
ATOM     13  H   UNL     1       7.081  -3.979   0.000  0.00  0.00    +0.148 HD
ENDROOT
BRANCH   6   7
ATOM      7  N   UNL     1       5.449   1.043   0.000  0.00  0.00    +0.047 NA
ATOM      8  O   UNL     1       4.150   1.793   0.000  0.00  0.00    -0.126 OA
ENDBRANCH   6   7
TORSDOF 1