REMARK  Name = 60377
REMARK  5 active torsions:
REMARK  status: ('A' for Active; 'I' for Inactive)
REMARK    1  A    between atoms: C_6  and  C_8
REMARK    2  A    between atoms: C_8  and  C_9
REMARK    3  A    between atoms: C_9  and  C_10
REMARK    4  A    between atoms: C_10  and  C_11
REMARK    5  A    between atoms: C_11  and  C_12
REMARK                            x       y       z     vdW  Elec       q    Type
REMARK                         _______ _______ _______ _____ _____    ______ ____
ROOT
ATOM      1  N   UNL     1       2.275   2.894   0.000  0.00  0.00    -0.301 N 
ATOM      2  C   UNL     1       3.702   3.357   0.000  0.00  0.00    +0.216 C 
ATOM      8  O   UNL     1       4.817   2.354   0.000  0.00  0.00    -0.276 OA
ATOM      9  C   UNL     1       1.812   1.467   0.000  0.00  0.00    +0.108 C 
ATOM     10  C   UNL     1       0.312   1.467   0.000  0.00  0.00    +0.020 C 
ATOM     11  C   UNL     1      -0.152   2.894   0.000  0.00  0.00    +0.020 C 
ATOM     12  C   UNL     1       1.062   3.776   0.000  0.00  0.00    +0.108 C 
ENDROOT
BRANCH   2   3
ATOM      3  C   UNL     1       4.014   4.825   0.000  0.00  0.00    +0.096 C 
BRANCH   3   4
ATOM      4  C   UNL     1       5.440   5.288   0.000  0.00  0.00    +0.009 C 
BRANCH   4   5
ATOM      5  C   UNL     1       6.555   4.284   0.000  0.00  0.00    +0.000 C 
BRANCH   5   6
ATOM      6  C   UNL     1       7.982   4.748   0.000  0.00  0.00    -0.003 C 
ATOM      7  C   UNL     1       9.096   3.744   0.000  0.00  0.00    +0.004 C 
ENDBRANCH   5   6
ENDBRANCH   4   5
ENDBRANCH   3   4
ENDBRANCH   2   3
TORSDOF 4