REMARK  Name = 9489
REMARK  2 active torsions:
REMARK  status: ('A' for Active; 'I' for Inactive)
REMARK    1  A    between atoms: C_7  and  C_14
REMARK    2  A    between atoms: C_8  and  C_13
REMARK                            x       y       z     vdW  Elec       q    Type
REMARK                         _______ _______ _______ _____ _____    ______ ____
ROOT
ATOM      7  C   UNL     1       4.647  -5.250   0.000  0.00  0.00    +0.030 C 
ATOM      8  C   UNL     1       4.647  -3.750   0.000  0.00  0.00    +0.030 C 
ENDROOT
BRANCH   7   6
ATOM      1  N   UNL     1       5.946  -7.500   0.000  0.00  0.00    -0.256 NA
ATOM      2  C   UNL     1       7.245  -8.250   0.000  0.00  0.00    +0.111 A 
ATOM      3  C   UNL     1       8.544  -7.500   0.000  0.00  0.00    +0.020 A 
ATOM      4  C   UNL     1       8.544  -6.000   0.000  0.00  0.00    +0.004 A 
ATOM      5  C   UNL     1       7.245  -5.250   0.000  0.00  0.00    +0.028 A 
ATOM      6  C   UNL     1       5.946  -6.000   0.000  0.00  0.00    +0.064 A 
ENDBRANCH   7   6
BRANCH   8   9
ATOM      9  C   UNL     1       3.348  -3.000   0.000  0.00  0.00    +0.064 A 
ATOM     10  C   UNL     1       3.348  -1.500   0.000  0.00  0.00    +0.028 A 
ATOM     11  C   UNL     1       2.049  -0.750   0.000  0.00  0.00    +0.004 A 
ATOM     12  C   UNL     1       0.750  -1.500   0.000  0.00  0.00    +0.020 A 
ATOM     13  C   UNL     1       0.750  -3.000   0.000  0.00  0.00    +0.111 A 
ATOM     14  N   UNL     1       2.049  -3.750   0.000  0.00  0.00    -0.256 NA
ENDBRANCH   8   9
TORSDOF 2