REMARK  Name = 83345
REMARK  1 active torsions:
REMARK  status: ('A' for Active; 'I' for Inactive)
REMARK    1  A    between atoms: C_10  and  C_11
REMARK                            x       y       z     vdW  Elec       q    Type
REMARK                         _______ _______ _______ _____ _____    ______ ____
ROOT
ATOM      1  H   UNL     1      -3.522   5.899   0.000  0.00  0.00    +0.123 HD
ATOM      2  N   UNL     1      -2.223   6.649   0.000  0.00  0.00    -0.304 NA
ATOM      3  C   UNL     1      -0.924   5.899   0.000  0.00  0.00    +0.135 C 
ATOM     10  C   UNL     1       0.375   6.649   0.000  0.00  0.00    +0.083 A 
ATOM     11  C   UNL     1       0.375   8.149   0.000  0.00  0.00    +0.042 A 
ATOM     12  C   UNL     1      -0.924   8.899   0.000  0.00  0.00    +0.070 C 
ATOM     13  N   UNL     1       1.802   8.613   0.000  0.00  0.00    -0.348 N 
ATOM     14  H   UNL     1       2.265  10.040   0.000  0.00  0.00    +0.166 HD
ATOM     15  C   UNL     1       2.683   7.399   0.000  0.00  0.00    +0.197 A 
ATOM     16  N   UNL     1       1.802   6.186   0.000  0.00  0.00    -0.239 NA
ATOM     17  C   UNL     1      -2.223   8.149   0.000  0.00  0.00    +0.088 C 
ENDROOT
BRANCH   3   4
ATOM      4  C   UNL     1      -0.924   4.399   0.000  0.00  0.00    -0.025 A 
ATOM      5  C   UNL     1      -2.223   3.650   0.000  0.00  0.00    +0.005 A 
ATOM      6  C   UNL     1      -2.223   2.150   0.000  0.00  0.00    +0.000 A 
ATOM      7  C   UNL     1      -0.924   1.400   0.000  0.00  0.00    +0.000 A 
ATOM      8  C   UNL     1       0.375   2.150   0.000  0.00  0.00    +0.000 A 
ATOM      9  C   UNL     1       0.375   3.650   0.000  0.00  0.00    +0.005 A 
ENDBRANCH   3   4
TORSDOF 1