REMARK  Name = 99657
REMARK  6 active torsions:
REMARK  status: ('A' for Active; 'I' for Inactive)
REMARK    1  A    between atoms: N_2  and  C_19
REMARK    2  A    between atoms: N_4  and  C_20
REMARK    3  A    between atoms: S_8  and  C_17
REMARK    4  A    between atoms: S_8  and  C_21
REMARK    5  A    between atoms: N_9  and  C_22
REMARK    6  A    between atoms: C_21  and  C_22
REMARK                            x       y       z     vdW  Elec       q    Type
REMARK                         _______ _______ _______ _____ _____    ______ ____
ROOT
ATOM      1  O   UNL     1      -5.726  -1.659   0.000  0.00  0.00    -0.246 OA
ATOM      2  C   UNL     1      -4.437  -0.892   0.000  0.00  0.00    +0.331 A 
ATOM      3  N   UNL     1      -3.128  -1.625   0.000  0.00  0.00    -0.280 N 
ATOM      4  C   UNL     1      -3.109  -3.125   0.000  0.00  0.00    +0.155 C 
ATOM      5  C   UNL     1      -1.839  -0.858   0.000  0.00  0.00    +0.166 A 
ATOM      6  C   UNL     1      -1.859   0.642   0.000  0.00  0.00    +0.116 A 
ATOM      7  C   UNL     1      -3.168   1.375   0.000  0.00  0.00    +0.118 A 
ATOM      8  S   UNL     1      -3.187   2.875   0.000  0.00  0.00    -0.030 S 
ATOM      9  N   UNL     1      -0.439   1.124   0.000  0.00  0.00    -0.330 N 
ATOM     10  H   UNL     1       0.006   2.557   0.000  0.00  0.00    +0.168 HD
ATOM     11  C   UNL     1       0.459  -0.078   0.000  0.00  0.00    +0.169 A 
ATOM     20  N   UNL     1      -0.407  -1.303   0.000  0.00  0.00    -0.204 NA
ATOM     21  N   UNL     1      -4.457   0.608   0.000  0.00  0.00    -0.289 N 
ATOM     22  C   UNL     1      -5.766   1.341   0.000  0.00  0.00    +0.154 C 
ENDROOT
BRANCH  11  12
ATOM     12  S   UNL     1       1.959  -0.058   0.000  0.00  0.00    -0.087 S 
BRANCH  12  13
ATOM     13  C   UNL     1       2.490  -1.461   0.000  0.00  0.00    +0.092 C 
BRANCH  13  14
ATOM     14  C   UNL     1       3.971  -1.702   0.000  0.00  0.00    +0.095 C 
BRANCH  14  15
ATOM     15  N   UNL     1       4.920  -0.540   0.000  0.00  0.00    -0.302 NA
ATOM     16  C   UNL     1       6.417  -0.625   0.000  0.00  0.00    +0.084 C 
ATOM     17  C   UNL     1       6.961   0.773   0.000  0.00  0.00    +0.017 C 
ATOM     18  C   UNL     1       5.800   1.722   0.000  0.00  0.00    +0.017 C 
ATOM     19  C   UNL     1       4.538   0.910   0.000  0.00  0.00    +0.084 C 
ENDBRANCH  14  15
ENDBRANCH  13  14
ENDBRANCH  12  13
ENDBRANCH  11  12
TORSDOF 4