REMARK  Name = 48388
REMARK  4 active torsions:
REMARK  status: ('A' for Active; 'I' for Inactive)
REMARK    1  A    between atoms: C_5  and  C_6
REMARK    2  A    between atoms: C_5  and  N_20
REMARK    3  A    between atoms: C_6  and  S_22
REMARK    4  A    between atoms: C_12  and  S_22
REMARK                            x       y       z     vdW  Elec       q    Type
REMARK                         _______ _______ _______ _____ _____    ______ ____
ROOT
ATOM      7  C   UNL     1      -6.955  -2.374   0.000  0.00  0.00    +0.135 C 
ENDROOT
BRANCH   7   6
ATOM      1  C   UNL     1      -0.750  -3.874   0.000  0.00  0.00    +0.198 A 
ATOM      2  N   UNL     1      -1.632  -2.660   0.000  0.00  0.00    -0.232 NA
ATOM      3  C   UNL     1      -3.058  -3.124   0.000  0.00  0.00    +0.138 A 
ATOM      4  C   UNL     1      -4.357  -2.374   0.000  0.00  0.00    +0.117 A 
ATOM      5  S   UNL     1      -4.357  -0.874   0.000  0.00  0.00    -0.030 S 
ATOM      6  N   UNL     1      -5.656  -3.124   0.000  0.00  0.00    -0.323 N 
ATOM     19  C   UNL     1      -5.656  -4.624   0.000  0.00  0.00    +0.202 A 
ATOM     20  N   UNL     1      -4.357  -5.374   0.000  0.00  0.00    -0.218 NA
ATOM     21  C   UNL     1      -3.058  -4.624   0.000  0.00  0.00    +0.162 A 
ATOM     22  N   UNL     1      -1.632  -5.088   0.000  0.00  0.00    -0.329 N 
ATOM     23  H   UNL     1      -1.168  -6.514   0.000  0.00  0.00    +0.168 HD
ENDBRANCH   7   6
BRANCH   7   8
ATOM      8  C   UNL     1      -8.254  -3.124   0.000  0.00  0.00    +0.097 C 
BRANCH   8   9
ATOM      9  S   UNL     1      -9.553  -2.374   0.000  0.00  0.00    -0.106 S 
BRANCH   9  10
ATOM     10  C   UNL     1     -10.852  -3.124   0.000  0.00  0.00    +0.115 C 
ATOM     11  N   UNL     1     -10.852  -4.624   0.000  0.00  0.00    -0.207 NA
ATOM     12  C   UNL     1     -12.152  -5.374   0.000  0.00  0.00    +0.367 C 
ATOM     13  N   UNL     1     -13.451  -4.624   0.000  0.00  0.00    -0.025 NA
ATOM     14  C   UNL     1     -13.451  -3.124   0.000  0.00  0.00    +0.375 C 
ATOM     15  N   UNL     1     -14.565  -2.120   0.000  0.00  0.00    -0.026 NA
ATOM     16  C   UNL     1     -13.955  -0.750   0.000  0.00  0.00    +0.363 C 
ATOM     17  N   UNL     1     -12.463  -0.907   0.000  0.00  0.00    -0.227 NA
ATOM     18  C   UNL     1     -12.152  -2.374   0.000  0.00  0.00    +0.285 C 
ENDBRANCH   9  10
ENDBRANCH   8   9
ENDBRANCH   7   8
TORSDOF 4