REMARK  Name = 55573
REMARK  7 active torsions:
REMARK  status: ('A' for Active; 'I' for Inactive)
REMARK    1  A    between atoms: C_2  and  C_5
REMARK    2  A    between atoms: C_3  and  C_8
REMARK    3  A    between atoms: C_5  and  O_7
REMARK    4  A    between atoms: N_10  and  C_11
REMARK    5  A    between atoms: C_11  and  C_12
REMARK    6  A    between atoms: C_12  and  C_13
REMARK    7  A    between atoms: C_12  and  C_14
REMARK                            x       y       z     vdW  Elec       q    Type
REMARK                         _______ _______ _______ _____ _____    ______ ____
ROOT
ATOM      7  C   UNL     1       2.525   4.922   0.000  0.00  0.00    +0.237 C 
ATOM      8  N   UNL     1       4.024   4.922   0.000  0.00  0.00    -0.312 N 
ATOM      9  H   UNL     1       4.517   4.069   0.000  0.00  0.00    +0.149 HD
ATOM     14  O   UNL     1       1.775   6.221   0.000  0.00  0.00    -0.271 OA
ENDROOT
BRANCH   7   6
ATOM      1  C   UNL     1       0.275   3.623   0.000  0.00  0.00    +0.096 C 
ATOM      6  C   UNL     1       1.775   3.623   0.000  0.00  0.00    +0.074 C 
BRANCH   1   2
ATOM      2  C   UNL     1      -0.475   4.922   0.000  0.00  0.00    +0.330 C 
ATOM      5  O   UNL     1      -1.976   4.922   0.000  0.00  0.00    -0.246 OA
BRANCH   2   3
ATOM      3  O   UNL     1       0.275   6.221   0.000  0.00  0.00    -0.478 OA
ATOM      4  H   UNL     1       1.211   6.221   0.000  0.00  0.00    +0.295 HD
ENDBRANCH   2   3
ENDBRANCH   1   2
ENDBRANCH   7   6
BRANCH   8  10
ATOM     10  C   UNL     1       4.774   6.221   0.000  0.00  0.00    +0.107 C 
BRANCH  10  11
ATOM     11  C   UNL     1       4.024   7.520   0.000  0.00  0.00    -0.000 C 
ATOM     12  C   UNL     1       2.525   7.520   0.000  0.00  0.00    +0.009 C 
ATOM     13  C   UNL     1       4.774   8.819   0.000  0.00  0.00    +0.009 C 
ENDBRANCH  10  11
ENDBRANCH   8  10
TORSDOF 5