REMARK  Name = 43013
REMARK  3 active torsions:
REMARK  status: ('A' for Active; 'I' for Inactive)
REMARK    1  A    between atoms: C_5  and  C_9
REMARK    2  A    between atoms: C_8  and  S_10
REMARK    3  A    between atoms: S_10  and  C_11
REMARK                            x       y       z     vdW  Elec       q    Type
REMARK                         _______ _______ _______ _____ _____    ______ ____
ROOT
ATOM      1  H   UNL     1      -5.721  -0.750   0.000  0.00  0.00    +0.167 HD
ATOM      2  N   UNL     1      -5.721  -2.250   0.000  0.00  0.00    -0.338 N 
ATOM      3  C   UNL     1      -4.422  -3.000   0.000  0.00  0.00    +0.167 A 
ATOM      6  N   UNL     1      -4.422  -4.500   0.000  0.00  0.00    -0.216 NA
ATOM      7  C   UNL     1      -5.721  -5.250   0.000  0.00  0.00    +0.112 A 
ATOM      8  C   UNL     1      -7.021  -4.500   0.000  0.00  0.00    +0.056 A 
ATOM      9  S   UNL     1      -5.721  -6.750   0.000  0.00  0.00    -0.031 S 
ATOM     10  C   UNL     1      -7.021  -3.000   0.000  0.00  0.00    +0.017 A 
ATOM     11  C   UNL     1      -8.319  -2.250   0.000  0.00  0.00    +0.063 C 
ENDROOT
BRANCH   3   4
ATOM      4  S   UNL     1      -3.123  -2.250   0.000  0.00  0.00    -0.091 S 
ATOM      5  C   UNL     1      -1.824  -3.000   0.000  0.00  0.00    +0.093 C 
ENDBRANCH   3   4
TORSDOF 1