REMARK  Name = 78609
REMARK  4 active torsions:
REMARK  status: ('A' for Active; 'I' for Inactive)
REMARK    1  A    between atoms: C_4  and  N_6
REMARK    2  A    between atoms: C_7  and  O_9
REMARK    3  A    between atoms: O_9  and  C_10
REMARK    4  A    between atoms: C_10  and  C_11
REMARK                            x       y       z     vdW  Elec       q    Type
REMARK                         _______ _______ _______ _____ _____    ______ ____
ROOT
ATOM      5  N   UNL     1       5.677   3.650   0.000  0.00  0.00    -0.234 N 
ATOM      6  H   UNL     1       5.882   4.613   0.000  0.00  0.00    +0.160 HD
ATOM      7  C   UNL     1       6.792   2.646   0.000  0.00  0.00    +0.406 C 
ATOM     11  O   UNL     1       8.219   3.109   0.000  0.00  0.00    -0.226 OA
ENDROOT
BRANCH   5   4
ATOM      1  N   UNL     1       1.824   3.186   0.000  0.00  0.00    -0.109 NA
ATOM      2  S   UNL     1       2.287   1.759   0.000  0.00  0.00    +0.030 S 
ATOM      3  C   UNL     1       3.787   1.759   0.000  0.00  0.00    +0.112 A 
ATOM      4  C   UNL     1       4.251   3.186   0.000  0.00  0.00    +0.159 A 
ATOM     12  N   UNL     1       3.037   4.068   0.000  0.00  0.00    -0.126 NA
ENDBRANCH   5   4
BRANCH   7   8
ATOM      8  O   UNL     1       6.480   1.179   0.000  0.00  0.00    -0.450 OA
BRANCH   8   9
ATOM      9  C   UNL     1       5.054   0.715   0.000  0.00  0.00    +0.230 C 
ATOM     10  C   UNL     1       4.742  -0.752   0.000  0.00  0.00    +0.048 C 
ENDBRANCH   8   9
ENDBRANCH   7   8
TORSDOF 3