REMARK  Name = 79559
REMARK  7 active torsions:
REMARK  status: ('A' for Active; 'I' for Inactive)
REMARK    1  A    between atoms: N_2  and  C_7
REMARK    2  A    between atoms: N_3  and  C_12
REMARK    3  A    between atoms: C_4  and  O_22
REMARK    4  A    between atoms: C_14  and  C_23
REMARK    5  A    between atoms: C_18  and  C_19
REMARK    6  A    between atoms: C_18  and  C_20
REMARK    7  A    between atoms: C_20  and  O_22
REMARK                            x       y       z     vdW  Elec       q    Type
REMARK                         _______ _______ _______ _____ _____    ______ ____
ROOT
ATOM      1  O   UNL     1     -13.637  -5.357   0.000  0.00  0.00    -0.284 OA
ATOM      2  C   UNL     1     -12.141  -5.469   0.000  0.00  0.00    +0.221 A 
ATOM      3  C   UNL     1     -11.593  -6.865   0.000  0.00  0.00    +0.057 A 
ATOM      4  C   UNL     1     -10.160  -7.307   0.000  0.00  0.00    +0.033 A 
ATOM      5  C   UNL     1      -8.920  -6.462   0.000  0.00  0.00    +0.086 A 
ATOM      6  C   UNL     1      -8.808  -4.966   0.000  0.00  0.00    +0.033 A 
ATOM      7  C   UNL     1      -9.908  -3.946   0.000  0.00  0.00    +0.052 A 
ATOM     17  C   UNL     1     -11.391  -4.170   0.000  0.00  0.00    +0.178 A 
ENDROOT
BRANCH   5   8
ATOM      8  N   UNL     1      -7.621  -7.212   0.000  0.00  0.00    -0.149 NA
ATOM      9  N   UNL     1      -7.621  -8.712   0.000  0.00  0.00    -0.149 NA
BRANCH   9  10
ATOM     10  C   UNL     1      -6.322  -9.462   0.000  0.00  0.00    +0.086 A 
ATOM     11  C   UNL     1      -6.322 -10.962   0.000  0.00  0.00    +0.030 A 
ATOM     12  C   UNL     1      -5.023 -11.712   0.000  0.00  0.00    +0.005 A 
ATOM     13  C   UNL     1      -3.724 -10.962   0.000  0.00  0.00    -0.050 A 
ATOM     14  C   UNL     1      -2.425 -11.712   0.000  0.00  0.00    +0.044 C 
ATOM     15  C   UNL     1      -3.724  -9.462   0.000  0.00  0.00    +0.005 A 
ATOM     16  C   UNL     1      -5.023  -8.712   0.000  0.00  0.00    +0.030 A 
ENDBRANCH   9  10
ENDBRANCH   5   8
BRANCH  17  18
ATOM     18  O   UNL     1     -12.236  -2.930   0.000  0.00  0.00    -0.419 OA
BRANCH  18  19
ATOM     19  C   UNL     1     -11.585  -1.579   0.000  0.00  0.00    +0.340 C 
ATOM     20  O   UNL     1     -10.089  -1.467   0.000  0.00  0.00    -0.245 OA
BRANCH  19  21
ATOM     21  C   UNL     1     -12.430  -0.340   0.000  0.00  0.00    +0.027 C 
ATOM     22  C   UNL     1     -11.779   1.012   0.000  0.00  0.00    +0.050 C 
ATOM     23  C   UNL     1     -13.926  -0.452   0.000  0.00  0.00    +0.019 C 
ENDBRANCH  19  21
ENDBRANCH  18  19
ENDBRANCH  17  18
TORSDOF 5