REMARK  Name = 42028
REMARK  1 active torsions:
REMARK  status: ('A' for Active; 'I' for Inactive)
REMARK    1  A    between atoms: C_9  and  C_11
REMARK                            x       y       z     vdW  Elec       q    Type
REMARK                         _______ _______ _______ _____ _____    ______ ____
ROOT
ATOM      1  S   UNL     1       1.310   5.250   0.000  0.00  0.00    -0.033 S 
ATOM      2  C   UNL     1       2.608   4.500   0.000  0.00  0.00    +0.088 A 
ATOM      3  C   UNL     1       3.908   5.250   0.000  0.00  0.00    +0.054 A 
ATOM      4  C   UNL     1       5.207   4.500   0.000  0.00  0.00    +0.017 A 
ATOM      5  C   UNL     1       6.506   5.250   0.000  0.00  0.00    +0.063 C 
ATOM      6  N   UNL     1       5.207   3.000   0.000  0.00  0.00    -0.339 N 
ATOM      7  H   UNL     1       6.506   2.250   0.000  0.00  0.00    +0.167 HD
ATOM      8  C   UNL     1       3.908   2.250   0.000  0.00  0.00    +0.156 A 
ATOM      9  S   UNL     1       3.908   0.750   0.000  0.00  0.00    -0.013 S 
ATOM     10  N   UNL     1       2.608   3.000   0.000  0.00  0.00    -0.330 N 
ATOM     11  H   UNL     1       1.310   2.250   0.000  0.00  0.00    +0.168 HD
ENDROOT
TORSDOF 0