REMARK  Name = 88998
REMARK  1 active torsions:
REMARK  status: ('A' for Active; 'I' for Inactive)
REMARK    1  A    between atoms: C_10  and  C_12
REMARK                            x       y       z     vdW  Elec       q    Type
REMARK                         _______ _______ _______ _____ _____    ______ ____
ROOT
ATOM      1  N   UNL     1      -5.114   0.171   0.000  0.00  0.00    -0.299 N 
ATOM      2  C   UNL     1      -3.819  -0.587   0.000  0.00  0.00    +0.248 C 
ATOM      6  O   UNL     1      -2.516   0.156   0.000  0.00  0.00    -0.273 OA
ATOM      7  C   UNL     1      -6.358  -0.667   0.000  0.00  0.00    +0.111 C 
ATOM      8  C   UNL     1      -7.789  -0.216   0.000  0.00  0.00    +0.006 C 
ATOM      9  C   UNL     1      -7.839   1.375   0.000  0.00  0.00    +0.005 C 
ATOM     10  C   UNL     1      -6.036   1.101   0.000  0.00  0.00    +0.005 C 
ATOM     11  C   UNL     1      -6.087   2.693   0.000  0.00  0.00    +0.006 C 
ATOM     12  C   UNL     1      -7.571   2.478   0.000  0.00  0.00    +0.005 C 
ATOM     13  C   UNL     1      -8.329   1.183   0.000  0.00  0.00    +0.005 C 
ATOM     14  C   UNL     1      -4.993   1.666   0.000  0.00  0.00    +0.111 C 
ENDROOT
BRANCH   2   3
ATOM      3  C   UNL     1      -3.828  -2.087   0.000  0.00  0.00    +0.256 C 
ATOM      4 CL   UNL     1      -5.131  -2.829   0.000  0.00  0.00    -0.094 Cl
ATOM      5 CL   UNL     1      -2.533  -2.844   0.000  0.00  0.00    -0.094 Cl
ENDBRANCH   2   3
TORSDOF 1