REMARK  Name = 82560
REMARK  5 active torsions:
REMARK  status: ('A' for Active; 'I' for Inactive)
REMARK    1  A    between atoms: N_5  and  C_8
REMARK    2  A    between atoms: N_6  and  C_12
REMARK    3  A    between atoms: C_9  and  N_18
REMARK    4  A    between atoms: C_13  and  S_19
REMARK    5  A    between atoms: S_19  and  N_22
REMARK                            x       y       z     vdW  Elec       q    Type
REMARK                         _______ _______ _______ _____ _____    ______ ____
ROOT
ATOM      1  N   UNL     1      -4.777   4.429   0.000  0.00  0.00    -0.176 NA
ATOM      2  C   UNL     1      -3.830   3.266   0.000  0.00  0.00    +0.304 A 
ATOM      3  C   UNL     1      -2.349   3.505   0.000  0.00  0.00    +0.190 A 
ATOM      4  C   UNL     1      -1.815   4.907   0.000  0.00  0.00    +0.129 A 
ATOM      8  N   UNL     1      -2.763   6.070   0.000  0.00  0.00    -0.315 N 
ATOM      9  H   UNL     1      -2.229   7.472   0.000  0.00  0.00    +0.170 HD
ATOM     24  O   UNL     1      -4.363   1.864   0.000  0.00  0.00    -0.263 OA
ATOM     25  C   UNL     1      -4.244   5.831   0.000  0.00  0.00    +0.195 A 
ATOM     26  N   UNL     1      -5.191   6.994   0.000  0.00  0.00    -0.329 N 
ATOM     27  H   UNL     1      -6.163   6.837   0.000  0.00  0.00    +0.145 HD
ATOM     28  H   UNL     1      -4.841   7.914   0.000  0.00  0.00    +0.145 HD
ENDROOT
BRANCH   4   5
ATOM      5  N   UNL     1      -0.335   5.146   0.000  0.00  0.00    -0.343 N 
ATOM      6  H   UNL     1       0.016   6.066   0.000  0.00  0.00    +0.144 HD
ATOM      7  H   UNL     1       0.287   4.383   0.000  0.00  0.00    +0.144 HD
ENDBRANCH   4   5
BRANCH   3  10
ATOM     10  N   UNL     1      -1.401   2.342   0.000  0.00  0.00    -0.140 NA
ATOM     11  N   UNL     1       0.080   2.581   0.000  0.00  0.00    -0.149 NA
BRANCH  11  12
ATOM     12  C   UNL     1       1.214   1.601   0.000  0.00  0.00    +0.086 A 
ATOM     13  C   UNL     1       2.631   2.093   0.000  0.00  0.00    +0.031 A 
ATOM     14  C   UNL     1       3.766   1.112   0.000  0.00  0.00    +0.030 A 
ATOM     15  C   UNL     1       3.484  -0.361   0.000  0.00  0.00    +0.105 A 
ATOM     22  C   UNL     1       2.068  -0.854   0.000  0.00  0.00    +0.030 A 
ATOM     23  C   UNL     1       0.933   0.127   0.000  0.00  0.00    +0.031 A 
BRANCH  15  16
ATOM     16  S   UNL     1       4.619  -1.342   0.000  0.00  0.00    +0.056 S 
ATOM     20  O   UNL     1       3.639  -2.477   0.000  0.00  0.00    -0.153 OA
ATOM     21  O   UNL     1       5.600  -0.207   0.000  0.00  0.00    -0.153 OA
BRANCH  16  17
ATOM     17  N   UNL     1       5.754  -2.322   0.000  0.00  0.00    -0.204 NA
ATOM     18  H   UNL     1       6.718  -1.987   0.000  0.00  0.00    +0.144 HD
ATOM     19  H   UNL     1       5.563  -3.324   0.000  0.00  0.00    +0.144 HD
ENDBRANCH  16  17
ENDBRANCH  15  16
ENDBRANCH  11  12
ENDBRANCH   3  10
TORSDOF 5