REMARK  Name = 88916
REMARK  4 active torsions:
REMARK  status: ('A' for Active; 'I' for Inactive)
REMARK    1  A    between atoms: C_7  and  C_29
REMARK    2  A    between atoms: C_9  and  C_10
REMARK    3  A    between atoms: C_11  and  C_28
REMARK    4  A    between atoms: C_19  and  C_27
REMARK                            x       y       z     vdW  Elec       q    Type
REMARK                         _______ _______ _______ _____ _____    ______ ____
ROOT
ATOM      1  O   UNL     1      -8.254 -14.204   0.000  0.00  0.00    -0.293 OA
ATOM      2  C   UNL     1      -7.238 -13.100   0.000  0.00  0.00    +0.156 C 
ATOM      3  C   UNL     1      -5.774 -13.428   0.000  0.00  0.00    +0.046 C 
ATOM      4  C   UNL     1      -4.759 -12.324   0.000  0.00  0.00    -0.060 C 
ATOM      5  C   UNL     1      -3.295 -12.651   0.000  0.00  0.00    +0.032 C 
ATOM      6  C   UNL     1      -2.279 -11.548   0.000  0.00  0.00    +0.008 C 
ATOM      7  C   UNL     1      -2.728 -10.116   0.000  0.00  0.00    -0.003 C 
ATOM      8  C   UNL     1      -4.191  -9.788   0.000  0.00  0.00    +0.002 C 
ATOM      9  C   UNL     1      -4.639  -8.357   0.000  0.00  0.00    +0.005 C 
ATOM     10  C   UNL     1      -3.624  -7.253   0.000  0.00  0.00    +0.008 C 
ATOM     11  C   UNL     1      -2.160  -7.581   0.000  0.00  0.00    -0.021 C 
ATOM     12  C   UNL     1      -2.456  -6.110   0.000  0.00  0.00    +0.012 C 
ATOM     13  C   UNL     1      -0.937  -6.712   0.000  0.00  0.00    +0.044 C 
ATOM     14  C   UNL     1       0.267  -7.607   0.000  0.00  0.00    +0.010 C 
ATOM     15  C   UNL     1      -0.212  -9.028   0.000  0.00  0.00    +0.005 C 
ATOM     22  C   UNL     1      -1.712  -9.012   0.000  0.00  0.00    -0.001 C 
ATOM     23  C   UNL     1      -5.207 -10.892   0.000  0.00  0.00    -0.007 C 
ATOM     24  C   UNL     1      -5.655  -9.461   0.000  0.00  0.00    +0.016 C 
ATOM     25  C   UNL     1      -6.671 -10.565   0.000  0.00  0.00    +0.019 C 
ATOM     26  C   UNL     1      -7.686 -11.668   0.000  0.00  0.00    +0.080 C 
ENDROOT
BRANCH  13  16
ATOM     16  C   UNL     1      -0.921  -5.212   0.000  0.00  0.00    +0.052 A 
ATOM     17  C   UNL     1      -2.125  -4.318   0.000  0.00  0.00    +0.070 A 
ATOM     18  S   UNL     1      -1.646  -2.896   0.000  0.00  0.00    -0.081 S 
ATOM     19  C   UNL     1      -0.146  -2.912   0.000  0.00  0.00    +0.076 A 
ATOM     20  C   UNL     1       0.749  -1.708   0.000  0.00  0.00    +0.073 C 
ATOM     21  N   UNL     1       0.302  -4.344   0.000  0.00  0.00    -0.249 NA
ENDBRANCH  13  16
TORSDOF 1