REMARK  Name = 50858
REMARK  2 active torsions:
REMARK  status: ('A' for Active; 'I' for Inactive)
REMARK    1  A    between atoms: C_6  and  C_8
REMARK    2  A    between atoms: C_7  and  N_14
REMARK                            x       y       z     vdW  Elec       q    Type
REMARK                         _______ _______ _______ _____ _____    ______ ____
ROOT
ATOM      1  H   UNL     1       3.160   3.974   0.000  0.00  0.00    +0.211 HD
ATOM      2  N   UNL     1       3.771   2.604   0.000  0.00  0.00    -0.182 N 
ATOM      3  C   UNL     1       5.238   2.292   0.000  0.00  0.00    +0.285 A 
ATOM      4  C   UNL     1       5.394   0.800   0.000  0.00  0.00    +0.082 A 
ATOM     11  C   UNL     1       4.024   0.190   0.000  0.00  0.00    +0.220 A 
ATOM     15  O   UNL     1       6.353   3.296   0.000  0.00  0.00    -0.265 OA
ATOM     16  O   UNL     1       3.021   1.305   0.000  0.00  0.00    -0.362 OA
ENDROOT
BRANCH   4   5
ATOM      5  C   UNL     1       6.694   0.050   0.000  0.00  0.00    +0.029 C 
ATOM      6  C   UNL     1       6.694  -1.450   0.000  0.00  0.00    +0.008 C 
ATOM      7  C   UNL     1       7.993  -2.200   0.000  0.00  0.00    +0.001 C 
ATOM      8  C   UNL     1       9.292  -1.450   0.000  0.00  0.00    +0.000 C 
ATOM      9  C   UNL     1       9.292   0.050   0.000  0.00  0.00    +0.001 C 
ATOM     10  C   UNL     1       7.993   0.800   0.000  0.00  0.00    +0.008 C 
ENDBRANCH   4   5
BRANCH  11  12
ATOM     12  N   UNL     1       3.712  -1.277   0.000  0.00  0.00    -0.327 N 
ATOM     13  H   UNL     1       4.444  -1.936   0.000  0.00  0.00    +0.145 HD
ATOM     14  H   UNL     1       2.776  -1.582   0.000  0.00  0.00    +0.145 HD
ENDBRANCH  11  12
TORSDOF 2