REMARK  Name = 650438
REMARK  4 active torsions:
REMARK  status: ('A' for Active; 'I' for Inactive)
REMARK    1  A    between atoms: C_3  and  O_8
REMARK    2  A    between atoms: C_4  and  C_9
REMARK    3  A    between atoms: C_6  and  O_7
REMARK    4  A    between atoms: C_10  and  N_11
REMARK                            x       y       z     vdW  Elec       q    Type
REMARK                         _______ _______ _______ _____ _____    ______ ____
ROOT
ATOM      1  C   UNL     1       2.049   4.500   0.000  0.00  0.00    +0.049 A 
ATOM      2  C   UNL     1       2.049   3.000   0.000  0.00  0.00    +0.118 A 
ATOM      5  C   UNL     1       3.348   2.250   0.000  0.00  0.00    +0.057 A 
ATOM      6  C   UNL     1       4.647   3.000   0.000  0.00  0.00    +0.021 A 
ATOM     13  C   UNL     1       4.647   4.500   0.000  0.00  0.00    +0.124 A 
ATOM     16  C   UNL     1       3.348   5.250   0.000  0.00  0.00    +0.049 A 
ENDROOT
BRANCH   2   3
ATOM      3  O   UNL     1       0.750   2.250   0.000  0.00  0.00    -0.507 OA
ATOM      4  H   UNL     1      -0.061   2.718   0.000  0.00  0.00    +0.292 HD
ENDBRANCH   2   3
BRANCH   6   7
ATOM      7  C   UNL     1       5.946   2.250   0.000  0.00  0.00    +0.027 C 
ATOM      8  C   UNL     1       7.245   3.000   0.000  0.00  0.00    +0.075 C 
BRANCH   8   9
ATOM      9  N   UNL     1       7.245   4.500   0.000  0.00  0.00    -0.295 N 
ATOM     10  H   UNL     1       6.393   4.992   0.000  0.00  0.00    +0.154 HD
ATOM     11  C   UNL     1       8.544   5.250   0.000  0.00  0.00    +0.329 C 
ATOM     12  O   UNL     1       8.544   6.750   0.000  0.00  0.00    -0.279 OA
ENDBRANCH   8   9
ENDBRANCH   6   7
BRANCH  13  14
ATOM     14  O   UNL     1       5.946   5.250   0.000  0.00  0.00    -0.506 OA
ATOM     15  H   UNL     1       6.758   4.782   0.000  0.00  0.00    +0.292 HD
ENDBRANCH  13  14
TORSDOF 4