REMARK  Name = 75885
REMARK  3 active torsions:
REMARK  status: ('A' for Active; 'I' for Inactive)
REMARK    1  A    between atoms: C_10  and  C_19
REMARK    2  A    between atoms: C_12  and  C_16
REMARK    3  A    between atoms: N_17  and  N_18
REMARK                            x       y       z     vdW  Elec       q    Type
REMARK                         _______ _______ _______ _____ _____    ______ ____
ROOT
ATOM      1  H   UNL     1       0.275   7.024   0.000  0.00  0.00    +0.168 HD
ATOM      2  N   UNL     1       0.275   5.524   0.000  0.00  0.00    -0.328 N 
ATOM      3  C   UNL     1       1.574   4.774   0.000  0.00  0.00    +0.228 A 
ATOM      4  N   UNL     1       2.873   5.524   0.000  0.00  0.00    -0.113 NA
ATOM     13  N   UNL     1       1.574   3.275   0.000  0.00  0.00    -0.292 N 
ATOM     14  H   UNL     1       2.873   2.525   0.000  0.00  0.00    +0.172 HD
ATOM     15  C   UNL     1       0.275   2.525   0.000  0.00  0.00    +0.253 A 
ATOM     16  C   UNL     1      -1.025   3.275   0.000  0.00  0.00    +0.091 A 
ATOM     17  O   UNL     1       0.275   1.025   0.000  0.00  0.00    -0.268 OA
ATOM     18  C   UNL     1      -1.025   4.774   0.000  0.00  0.00    +0.021 A 
ATOM     19  C   UNL     1      -2.324   5.524   0.000  0.00  0.00    +0.063 C 
ENDROOT
BRANCH   4   5
ATOM      5  N   UNL     1       2.873   7.024   0.000  0.00  0.00    -0.155 NA
ATOM      6  C   UNL     1       4.172   7.774   0.000  0.00  0.00    +0.044 C 
ATOM      7  C   UNL     1       5.471   7.024   0.000  0.00  0.00    +0.032 C 
ATOM      8  C   UNL     1       5.471   5.524   0.000  0.00  0.00    +0.014 C 
ATOM      9  C   UNL     1       6.770   7.774   0.000  0.00  0.00    +0.009 C 
ATOM     10  C   UNL     1       6.770   9.274   0.000  0.00  0.00    +0.001 C 
ATOM     11  C   UNL     1       5.471  10.025   0.000  0.00  0.00    +0.006 C 
ATOM     12  C   UNL     1       4.172   9.274   0.000  0.00  0.00    +0.053 C 
ENDBRANCH   4   5
TORSDOF 1