REMARK  Name = 44750
REMARK  4 active torsions:
REMARK  status: ('A' for Active; 'I' for Inactive)
REMARK    1  A    between atoms: C_1  and  C_21
REMARK    2  A    between atoms: C_5  and  N_19
REMARK    3  A    between atoms: C_6  and  N_16
REMARK    4  A    between atoms: C_21  and  O_23
REMARK                            x       y       z     vdW  Elec       q    Type
REMARK                         _______ _______ _______ _____ _____    ______ ____
ROOT
ATOM      1  C   UNL     1      -5.722  -3.000   0.000  0.00  0.00    +0.062 A 
ATOM      6  C   UNL     1      -4.423  -3.750   0.000  0.00  0.00    +0.039 A 
ATOM      7  C   UNL     1      -4.423  -5.250   0.000  0.00  0.00    +0.047 A 
ATOM      8  C   UNL     1      -5.722  -6.000   0.000  0.00  0.00    +0.048 A 
ATOM      9  C   UNL     1      -7.021  -5.250   0.000  0.00  0.00    +0.047 A 
ATOM     24  C   UNL     1      -7.021  -3.750   0.000  0.00  0.00    +0.039 A 
ENDROOT
BRANCH   9  10
ATOM     10  N   UNL     1      -8.320  -6.000   0.000  0.00  0.00    -0.203 N 
ATOM     11  C   UNL     1      -8.477  -7.492   0.000  0.00  0.00    +0.250 C 
ATOM     12  C   UNL     1      -9.944  -7.804   0.000  0.00  0.00    +0.073 C 
ATOM     13  C   UNL     1     -10.694  -6.505   0.000  0.00  0.00    +0.073 C 
ATOM     14  O   UNL     1      -7.362  -8.495   0.000  0.00  0.00    -0.270 OA
ATOM     15  C   UNL     1      -9.691  -5.390   0.000  0.00  0.00    +0.250 C 
ATOM     16  O   UNL     1     -10.002  -3.923   0.000  0.00  0.00    -0.270 OA
ENDBRANCH   9  10
BRANCH   7  17
ATOM     17  N   UNL     1      -3.124  -6.000   0.000  0.00  0.00    -0.203 N 
ATOM     18  C   UNL     1      -2.967  -7.492   0.000  0.00  0.00    +0.250 C 
ATOM     19  O   UNL     1      -4.082  -8.495   0.000  0.00  0.00    -0.270 OA
ATOM     20  C   UNL     1      -1.500  -7.804   0.000  0.00  0.00    +0.073 C 
ATOM     21  C   UNL     1      -0.750  -6.505   0.000  0.00  0.00    +0.073 C 
ATOM     22  C   UNL     1      -1.754  -5.390   0.000  0.00  0.00    +0.250 C 
ATOM     23  O   UNL     1      -1.442  -3.923   0.000  0.00  0.00    -0.270 OA
ENDBRANCH   7  17
BRANCH   1   2
ATOM      2  C   UNL     1      -5.722  -1.500   0.000  0.00  0.00    +0.337 C 
ATOM      5  O   UNL     1      -7.021  -0.750   0.000  0.00  0.00    -0.245 OA
BRANCH   2   3
ATOM      3  O   UNL     1      -4.423  -0.750   0.000  0.00  0.00    -0.477 OA
ATOM      4  H   UNL     1      -3.612  -1.219   0.000  0.00  0.00    +0.295 HD
ENDBRANCH   2   3
ENDBRANCH   1   2
TORSDOF 4