REMARK  Name = 60530
REMARK  0 active torsions:
REMARK  status: ('A' for Active; 'I' for Inactive)
REMARK                            x       y       z     vdW  Elec       q    Type
REMARK                         _______ _______ _______ _____ _____    ______ ____
ROOT
ATOM      1  N   UNL     1      -5.656  -3.000   0.000  0.00  0.00    -0.197 NA
ATOM      2  C   UNL     1      -5.656  -1.500   0.000  0.00  0.00    +0.234 A 
ATOM      3  N   UNL     1      -6.955  -0.750   0.000  0.00  0.00    -0.326 N 
ATOM      4  H   UNL     1      -7.808  -1.242   0.000  0.00  0.00    +0.145 HD
ATOM      5  H   UNL     1      -6.955   0.234   0.000  0.00  0.00    +0.145 HD
ATOM      6  N   UNL     1      -4.357  -0.750   0.000  0.00  0.00    -0.111 NA
ATOM      7  N   UNL     1      -3.058  -1.500   0.000  0.00  0.00    -0.124 N 
ATOM      8  C   UNL     1      -3.058  -3.000   0.000  0.00  0.00    +0.147 A 
ATOM      9  C   UNL     1      -1.632  -3.463   0.000  0.00  0.00    +0.169 A 
ATOM     10  N   UNL     1      -0.750  -2.250   0.000  0.00  0.00    -0.135 NA
ATOM     11  N   UNL     1      -1.632  -1.037   0.000  0.00  0.00    -0.043 NA
ATOM     12  C   UNL     1      -4.357  -3.750   0.000  0.00  0.00    +0.149 A 
ATOM     13  N   UNL     1      -4.357  -5.250   0.000  0.00  0.00    -0.341 N 
ATOM     14  H   UNL     1      -3.505  -5.742   0.000  0.00  0.00    +0.144 HD
ATOM     15  H   UNL     1      -5.210  -5.742   0.000  0.00  0.00    +0.144 HD
ENDROOT
TORSDOF 0