REMARK  Name = 182400
REMARK  2 active torsions:
REMARK  status: ('A' for Active; 'I' for Inactive)
REMARK    1  A    between atoms: C_10  and  C_13
REMARK    2  A    between atoms: C_13  and  O_15
REMARK                            x       y       z     vdW  Elec       q    Type
REMARK                         _______ _______ _______ _____ _____    ______ ____
ROOT
ATOM      1 CL   UNL     1      -9.205  -1.890   0.000  0.00  0.00    -0.059 Cl
ATOM      2  C   UNL     1      -7.906  -2.640   0.000  0.00  0.00    +0.168 A 
ATOM      3  C   UNL     1      -7.906  -4.140   0.000  0.00  0.00    +0.168 A 
ATOM      4  N   UNL     1      -6.607  -4.890   0.000  0.00  0.00    -0.210 NA
ATOM      5  C   UNL     1      -5.308  -4.140   0.000  0.00  0.00    +0.199 A 
ATOM      6  C   UNL     1      -5.308  -2.640   0.000  0.00  0.00    +0.179 A 
ATOM      7  N   UNL     1      -3.882  -2.177   0.000  0.00  0.00    -0.316 N 
ATOM      8  H   UNL     1      -3.418  -0.750   0.000  0.00  0.00    +0.169 HD
ATOM      9  C   UNL     1      -3.000  -3.390   0.000  0.00  0.00    +0.220 A 
ATOM     14  N   UNL     1      -3.882  -4.604   0.000  0.00  0.00    -0.201 NA
ATOM     15 CL   UNL     1      -9.205  -4.890   0.000  0.00  0.00    -0.059 Cl
ATOM     16  N   UNL     1      -6.607  -1.890   0.000  0.00  0.00    -0.211 NA
ENDROOT
BRANCH   9  10
ATOM     10  C   UNL     1      -1.500  -3.390   0.000  0.00  0.00    +0.373 C 
ATOM     13  O   UNL     1      -0.750  -4.689   0.000  0.00  0.00    -0.242 OA
BRANCH  10  11
ATOM     11  O   UNL     1      -0.750  -2.091   0.000  0.00  0.00    -0.475 OA
ATOM     12  H   UNL     1       0.187  -2.091   0.000  0.00  0.00    +0.296 HD
ENDBRANCH  10  11
ENDBRANCH   9  10
TORSDOF 2