REMARK  Name = 179822
REMARK  5 active torsions:
REMARK  status: ('A' for Active; 'I' for Inactive)
REMARK    1  A    between atoms: C_6  and  C_19
REMARK    2  A    between atoms: C_12  and  O_15
REMARK    3  A    between atoms: C_13  and  O_17
REMARK    4  A    between atoms: O_15  and  C_16
REMARK    5  A    between atoms: O_17  and  C_18
REMARK                            x       y       z     vdW  Elec       q    Type
REMARK                         _______ _______ _______ _____ _____    ______ ____
ROOT
ATOM      1  O   UNL     1      -5.729  -1.985   0.000  0.00  0.00    -0.454 OA
ATOM      2  C   UNL     1      -6.611  -3.198   0.000  0.00  0.00    +0.140 A 
ATOM      3  C   UNL     1      -8.103  -3.355   0.000  0.00  0.00    +0.096 A 
ATOM      4  C   UNL     1      -8.713  -4.725   0.000  0.00  0.00    +0.165 A 
ATOM      7  C   UNL     1      -7.831  -5.939   0.000  0.00  0.00    +0.162 A 
ATOM     10  C   UNL     1      -6.340  -5.782   0.000  0.00  0.00    +0.062 A 
ATOM     11  C   UNL     1      -5.729  -4.412   0.000  0.00  0.00    +0.039 A 
ATOM     12  C   UNL     1      -4.303  -3.948   0.000  0.00  0.00    +0.112 A 
ATOM     13  C   UNL     1      -3.004  -4.698   0.000  0.00  0.00    +0.348 A 
ATOM     14  O   UNL     1      -1.705  -3.948   0.000  0.00  0.00    -0.427 OA
ATOM     15  C   UNL     1      -1.705  -2.448   0.000  0.00  0.00    +0.110 A 
ATOM     16  C   UNL     1      -0.406  -1.698   0.000  0.00  0.00    +0.086 C 
ATOM     17  C   UNL     1      -3.004  -1.698   0.000  0.00  0.00    +0.088 A 
ATOM     18  O   UNL     1      -3.004  -6.198   0.000  0.00  0.00    -0.244 OA
ATOM     19  C   UNL     1      -4.303  -2.448   0.000  0.00  0.00    +0.146 A 
ENDROOT
BRANCH   4   5
ATOM      5  O   UNL     1     -10.205  -4.882   0.000  0.00  0.00    -0.491 OA
ATOM      6  C   UNL     1     -10.815  -6.252   0.000  0.00  0.00    +0.277 C 
ENDBRANCH   4   5
BRANCH   7   8
ATOM      8  O   UNL     1      -8.441  -7.309   0.000  0.00  0.00    -0.491 OA
ATOM      9  C   UNL     1      -9.933  -7.466   0.000  0.00  0.00    +0.277 C 
ENDBRANCH   7   8
TORSDOF 2