REMARK  Name = 175412
REMARK  6 active torsions:
REMARK  status: ('A' for Active; 'I' for Inactive)
REMARK    1  A    between atoms: C_5  and  S_10
REMARK    2  A    between atoms: C_7  and  C_12
REMARK    3  A    between atoms: S_10  and  C_11
REMARK    4  A    between atoms: C_12  and  O_14
REMARK    5  A    between atoms: O_14  and  C_15
REMARK    6  A    between atoms: C_15  and  C_16
REMARK                            x       y       z     vdW  Elec       q    Type
REMARK                         _______ _______ _______ _____ _____    ______ ____
ROOT
ATOM      1  N   UNL     1       3.166  -2.038   0.000  0.00  0.00    -0.210 NA
ATOM      2  C   UNL     1       3.166  -3.538   0.000  0.00  0.00    +0.226 A 
ATOM      3  N   UNL     1       4.465  -4.288   0.000  0.00  0.00    -0.216 NA
ATOM      4  C   UNL     1       5.764  -3.538   0.000  0.00  0.00    +0.174 A 
ATOM      5  C   UNL     1       7.191  -4.002   0.000  0.00  0.00    +0.123 A 
ATOM     11  C   UNL     1       8.073  -2.788   0.000  0.00  0.00    +0.152 A 
ATOM     12  N   UNL     1       7.191  -1.574   0.000  0.00  0.00    -0.170 NA
ATOM     13  N   UNL     1       5.764  -2.038   0.000  0.00  0.00    -0.190 N 
ATOM     14  C   UNL     1       4.465  -1.288   0.000  0.00  0.00    +0.193 A 
ENDROOT
BRANCH   5   6
ATOM      6  C   UNL     1       7.655  -5.428   0.000  0.00  0.00    +0.344 C 
ATOM     10  O   UNL     1       9.122  -5.740   0.000  0.00  0.00    -0.245 OA
BRANCH   6   7
ATOM      7  O   UNL     1       6.651  -6.543   0.000  0.00  0.00    -0.461 OA
BRANCH   7   8
ATOM      8  C   UNL     1       7.114  -7.969   0.000  0.00  0.00    +0.229 C 
ATOM      9  C   UNL     1       6.111  -9.084   0.000  0.00  0.00    +0.048 C 
ENDBRANCH   7   8
ENDBRANCH   6   7
ENDBRANCH   5   6
BRANCH  14  15
ATOM     15  S   UNL     1       4.465   0.212   0.000  0.00  0.00    -0.089 S 
ATOM     16  C   UNL     1       3.166   0.962   0.000  0.00  0.00    +0.093 C 
ENDBRANCH  14  15
TORSDOF 4