REMARK  Name = 19115
REMARK  1 active torsions:
REMARK  status: ('A' for Active; 'I' for Inactive)
REMARK    1  A    between atoms: N_3  and  C_10
REMARK                            x       y       z     vdW  Elec       q    Type
REMARK                         _______ _______ _______ _____ _____    ______ ____
ROOT
ATOM      1  N   UNL     1       2.418  -8.659   0.000  0.00  0.00    -0.220 NA
ATOM      2  C   UNL     1       1.537  -7.446   0.000  0.00  0.00    +0.225 A 
ATOM      3  N   UNL     1       2.147  -6.075   0.000  0.00  0.00    -0.216 NA
ATOM      4  C   UNL     1       3.639  -5.918   0.000  0.00  0.00    +0.163 A 
ATOM      5  C   UNL     1       4.520  -7.132   0.000  0.00  0.00    +0.078 A 
ATOM      6  C   UNL     1       5.947  -6.668   0.000  0.00  0.00    +0.148 A 
ATOM      7  N   UNL     1       5.947  -5.168   0.000  0.00  0.00    -0.177 NA
ATOM      8  N   UNL     1       4.520  -4.705   0.000  0.00  0.00    -0.243 N 
ATOM     15  C   UNL     1       3.910  -8.502   0.000  0.00  0.00    +0.130 A 
ATOM     16  N   UNL     1       4.792  -9.716   0.000  0.00  0.00    -0.342 N 
ATOM     17  H   UNL     1       5.771  -9.613   0.000  0.00  0.00    +0.144 HD
ATOM     18  H   UNL     1       4.391 -10.615   0.000  0.00  0.00    +0.144 HD
ENDROOT
BRANCH   8   9
ATOM      9  C   UNL     1       4.057  -3.278   0.000  0.00  0.00    +0.109 C 
ATOM     10  C   UNL     1       2.590  -2.966   0.000  0.00  0.00    +0.027 C 
ATOM     11  C   UNL     1       2.126  -1.540   0.000  0.00  0.00    +0.002 C 
ATOM     12  C   UNL     1       3.130  -0.425   0.000  0.00  0.00    +0.000 C 
ATOM     13  C   UNL     1       4.597  -0.737   0.000  0.00  0.00    +0.002 C 
ATOM     14  C   UNL     1       5.060  -2.164   0.000  0.00  0.00    +0.027 C 
ENDBRANCH   8   9
TORSDOF 1