REMARK  Name = 179818
REMARK  0 active torsions:
REMARK  status: ('A' for Active; 'I' for Inactive)
REMARK                            x       y       z     vdW  Elec       q    Type
REMARK                         _______ _______ _______ _____ _____    ______ ____
ROOT
ATOM      1  C   UNL     1       0.750   3.000   0.000  0.00  0.00    +0.001 A 
ATOM      2  C   UNL     1       0.750   1.500   0.000  0.00  0.00    +0.002 A 
ATOM      3  C   UNL     1       2.049   0.750   0.000  0.00  0.00    +0.028 A 
ATOM      4  C   UNL     1       3.348   1.500   0.000  0.00  0.00    +0.072 A 
ATOM      5  N   UNL     1       4.647   0.750   0.000  0.00  0.00    -0.247 NA
ATOM      6  C   UNL     1       5.946   1.500   0.000  0.00  0.00    +0.072 A 
ATOM      7  C   UNL     1       7.245   0.750   0.000  0.00  0.00    +0.030 A 
ATOM      8  C   UNL     1       8.544   1.500   0.000  0.00  0.00    +0.022 A 
ATOM      9  C   UNL     1       8.544   3.000   0.000  0.00  0.00    +0.042 A 
ATOM     10 CL   UNL     1       9.843   3.750   0.000  0.00  0.00    -0.084 Cl
ATOM     11  C   UNL     1       7.245   3.750   0.000  0.00  0.00    +0.030 A 
ATOM     12  C   UNL     1       5.946   3.000   0.000  0.00  0.00    +0.002 A 
ATOM     13  C   UNL     1       4.647   3.750   0.000  0.00  0.00    +0.020 A 
ATOM     14  C   UNL     1       3.348   3.000   0.000  0.00  0.00    +0.001 A 
ATOM     15  C   UNL     1       2.049   3.750   0.000  0.00  0.00    +0.010 A 
ENDROOT
TORSDOF 0