REMARK  Name = 175743
REMARK  5 active torsions:
REMARK  status: ('A' for Active; 'I' for Inactive)
REMARK    1  A    between atoms: C_3  and  N_20
REMARK    2  A    between atoms: C_4  and  N_13
REMARK    3  A    between atoms: C_9  and  N_19
REMARK    4  A    between atoms: C_11  and  N_14
REMARK    5  A    between atoms: C_15  and  C_16
REMARK                            x       y       z     vdW  Elec       q    Type
REMARK                         _______ _______ _______ _____ _____    ______ ____
ROOT
ATOM      3  N   UNL     1       7.419   6.649   0.000  0.00  0.00    -0.194 N 
ATOM      4  H   UNL     1       7.419   5.665   0.000  0.00  0.00    +0.299 HD
ATOM      5  C   UNL     1       6.120   7.399   0.000  0.00  0.00    +0.400 C 
ATOM      6  N   UNL     1       6.120   8.899   0.000  0.00  0.00    -0.092 NA
ATOM      7  H   UNL     1       6.973   9.392   0.000  0.00  0.00    +0.364 HD
ENDROOT
BRANCH   3   2
ATOM      1  C   UNL     1       8.718   8.899   0.000  0.00  0.00    +0.051 A 
ATOM      2  C   UNL     1       8.718   7.399   0.000  0.00  0.00    +0.119 A 
ATOM     22  C   UNL     1      10.017   6.649   0.000  0.00  0.00    +0.051 A 
ATOM     23  C   UNL     1      11.316   7.399   0.000  0.00  0.00    +0.026 A 
ATOM     24  C   UNL     1      11.316   8.899   0.000  0.00  0.00    +0.025 A 
ATOM     28  C   UNL     1      10.017   9.649   0.000  0.00  0.00    +0.026 A 
BRANCH  24  25
ATOM     25  N   UNL     1      12.615   9.649   0.000  0.00  0.00    -0.358 N 
ATOM     26  H   UNL     1      12.615  10.634   0.000  0.00  0.00    +0.142 HD
ATOM     27  H   UNL     1      13.468   9.157   0.000  0.00  0.00    +0.142 HD
ENDBRANCH  24  25
ENDBRANCH   3   2
BRANCH   5   8
ATOM      8  C   UNL     1       4.821   6.649   0.000  0.00  0.00    +0.400 C 
ATOM      9  N   UNL     1       3.522   7.399   0.000  0.00  0.00    -0.194 N 
ATOM     10  H   UNL     1       3.522   8.384   0.000  0.00  0.00    +0.299 HD
ATOM     20  N   UNL     1       4.821   5.149   0.000  0.00  0.00    -0.092 NA
ATOM     21  H   UNL     1       3.969   4.657   0.000  0.00  0.00    +0.364 HD
BRANCH   9  11
ATOM     11  C   UNL     1       2.223   6.649   0.000  0.00  0.00    +0.119 A 
ATOM     12  C   UNL     1       2.223   5.149   0.000  0.00  0.00    +0.051 A 
ATOM     13  C   UNL     1       0.924   4.399   0.000  0.00  0.00    +0.026 A 
ATOM     14  C   UNL     1      -0.375   5.149   0.000  0.00  0.00    +0.025 A 
ATOM     18  C   UNL     1      -0.375   6.649   0.000  0.00  0.00    +0.026 A 
ATOM     19  C   UNL     1       0.924   7.399   0.000  0.00  0.00    +0.051 A 
BRANCH  14  15
ATOM     15  N   UNL     1      -1.674   4.399   0.000  0.00  0.00    -0.358 N 
ATOM     16  H   UNL     1      -1.674   3.415   0.000  0.00  0.00    +0.142 HD
ATOM     17  H   UNL     1      -2.527   4.892   0.000  0.00  0.00    +0.142 HD
ENDBRANCH  14  15
ENDBRANCH   9  11
ENDBRANCH   5   8
TORSDOF 5