REMARK  Name = 190336
REMARK  4 active torsions:
REMARK  status: ('A' for Active; 'I' for Inactive)
REMARK    1  A    between atoms: C_3  and  N_8
REMARK    2  A    between atoms: N_8  and  C_9
REMARK    3  A    between atoms: C_9  and  C_10
REMARK    4  A    between atoms: N_12  and  N_13
REMARK                            x       y       z     vdW  Elec       q    Type
REMARK                         _______ _______ _______ _____ _____    ______ ____
ROOT
ATOM      7  N   UNL     1      -2.223  -3.650   0.000  0.00  0.00    -0.335 N 
ATOM      8  H   UNL     1      -2.223  -2.665   0.000  0.00  0.00    +0.147 HD
ENDROOT
BRANCH   7   6
ATOM      1 BR   UNL     1      -4.821  -8.149   0.000  0.00  0.00    -0.050 Br
ATOM      2  C   UNL     1      -4.821  -6.649   0.000  0.00  0.00    +0.020 A 
ATOM      3  C   UNL     1      -6.120  -5.899   0.000  0.00  0.00    +0.015 A 
ATOM      4  C   UNL     1      -6.120  -4.399   0.000  0.00  0.00    +0.003 A 
ATOM      5  C   UNL     1      -4.821  -3.650   0.000  0.00  0.00    +0.023 A 
ATOM      6  C   UNL     1      -3.522  -4.399   0.000  0.00  0.00    +0.029 A 
ATOM     17  C   UNL     1      -3.522  -5.899   0.000  0.00  0.00    +0.038 A 
ENDBRANCH   7   6
BRANCH   7   9
ATOM      9  C   UNL     1      -0.924  -4.399   0.000  0.00  0.00    +0.198 C 
BRANCH   9  10
ATOM     10  C   UNL     1       0.375  -3.650   0.000  0.00  0.00    +0.243 C 
ATOM     11  N   UNL     1       0.375  -2.150   0.000  0.00  0.00    -0.252 N 
ATOM     12  H   UNL     1       1.228  -1.657   0.000  0.00  0.00    +0.169 HD
ATOM     16  O   UNL     1       1.674  -4.399   0.000  0.00  0.00    -0.273 OA
BRANCH  11  13
ATOM     13  N   UNL     1      -0.924  -1.400   0.000  0.00  0.00    -0.254 NA
ATOM     14  H   UNL     1      -1.807  -1.909   0.000  0.00  0.00    +0.140 HD
ATOM     15  H   UNL     1      -0.924  -0.380   0.000  0.00  0.00    +0.140 HD
ENDBRANCH  11  13
ENDBRANCH   9  10
ENDBRANCH   7   9
TORSDOF 4