REMARK  Name = 177407
REMARK  2 active torsions:
REMARK  status: ('A' for Active; 'I' for Inactive)
REMARK    1  A    between atoms: C_10  and  C_13
REMARK    2  A    between atoms: C_14  and  C_19
REMARK                            x       y       z     vdW  Elec       q    Type
REMARK                         _______ _______ _______ _____ _____    ______ ____
ROOT
ATOM      1 CL   UNL     1      -9.208  -9.026   0.000  0.00  0.00    -0.059 Cl
ATOM      2  C   UNL     1      -7.716  -8.869   0.000  0.00  0.00    +0.168 A 
ATOM      3  C   UNL     1      -6.834 -10.083   0.000  0.00  0.00    +0.168 A 
ATOM      4  N   UNL     1      -5.342  -9.926   0.000  0.00  0.00    -0.210 NA
ATOM      5  C   UNL     1      -4.732  -8.556   0.000  0.00  0.00    +0.199 A 
ATOM      6  C   UNL     1      -5.614  -7.342   0.000  0.00  0.00    +0.179 A 
ATOM      7  N   UNL     1      -4.732  -6.129   0.000  0.00  0.00    -0.321 N 
ATOM      8  C   UNL     1      -3.306  -6.592   0.000  0.00  0.00    +0.142 A 
ATOM     19  H   UNL     1      -5.196  -4.702   0.000  0.00  0.00    +0.169 HD
ATOM     20  N   UNL     1      -3.306  -8.092   0.000  0.00  0.00    -0.207 NA
ATOM     21 CL   UNL     1      -7.444 -11.453   0.000  0.00  0.00    -0.059 Cl
ATOM     22  N   UNL     1      -7.106  -7.499   0.000  0.00  0.00    -0.211 NA
ENDROOT
BRANCH   8   9
ATOM      9  C   UNL     1      -2.092  -5.710   0.000  0.00  0.00    +0.018 A 
ATOM     10  C   UNL     1      -0.722  -6.321   0.000  0.00  0.00    +0.024 A 
ATOM     11  C   UNL     1       0.492  -5.439   0.000  0.00  0.00    +0.055 A 
ATOM     16  C   UNL     1       0.335  -3.947   0.000  0.00  0.00    +0.012 A 
ATOM     17  C   UNL     1      -1.035  -3.337   0.000  0.00  0.00    +0.001 A 
ATOM     18  C   UNL     1      -2.249  -4.219   0.000  0.00  0.00    +0.011 A 
BRANCH  11  12
ATOM     12  C   UNL     1       1.862  -6.049   0.000  0.00  0.00    +0.417 C 
ATOM     13  F   UNL     1       2.472  -4.679   0.000  0.00  0.00    -0.166 F 
ATOM     14  F   UNL     1       3.232  -6.659   0.000  0.00  0.00    -0.166 F 
ATOM     15  F   UNL     1       1.252  -7.419   0.000  0.00  0.00    -0.166 F 
ENDBRANCH  11  12
ENDBRANCH   8   9
TORSDOF 2