REMARK  Name = 174084
REMARK  4 active torsions:
REMARK  status: ('A' for Active; 'I' for Inactive)
REMARK    1  A    between atoms: C_3  and  N_17
REMARK    2  A    between atoms: C_7  and  O_12
REMARK    3  A    between atoms: O_12  and  C_13
REMARK    4  A    between atoms: C_14  and  C_16
REMARK                            x       y       z     vdW  Elec       q    Type
REMARK                         _______ _______ _______ _____ _____    ______ ____
ROOT
ATOM      1 BR   UNL     1      -6.800  -4.440   0.000  0.00  0.00    -0.046 Br
ATOM      2  C   UNL     1      -6.800  -2.940   0.000  0.00  0.00    +0.069 A 
ATOM      3  C   UNL     1      -8.098  -2.190   0.000  0.00  0.00    +0.136 A 
ATOM      6  C   UNL     1      -8.098  -0.690   0.000  0.00  0.00    +0.072 A 
ATOM      7  C   UNL     1      -6.800   0.060   0.000  0.00  0.00    +0.063 A 
ATOM     13  C   UNL     1      -5.500  -0.690   0.000  0.00  0.00    +0.093 A 
ATOM     14  N   UNL     1      -4.201   0.060   0.000  0.00  0.00    -0.253 NA
ATOM     15  C   UNL     1      -2.902  -0.690   0.000  0.00  0.00    +0.111 A 
ATOM     16  C   UNL     1      -2.902  -2.190   0.000  0.00  0.00    +0.020 A 
ATOM     17  C   UNL     1      -4.201  -2.940   0.000  0.00  0.00    +0.013 A 
ATOM     18  C   UNL     1      -5.500  -2.190   0.000  0.00  0.00    +0.020 A 
ENDROOT
BRANCH   7   8
ATOM      8  N   UNL     1      -6.800   1.560   0.000  0.00  0.00    -0.284 N 
ATOM      9  H   UNL     1      -5.947   2.052   0.000  0.00  0.00    +0.155 HD
ATOM     10  C   UNL     1      -8.098   2.310   0.000  0.00  0.00    +0.214 C 
ATOM     11  C   UNL     1      -9.398   1.560   0.000  0.00  0.00    +0.109 C 
ATOM     12  O   UNL     1      -8.098   3.810   0.000  0.00  0.00    -0.276 OA
ENDBRANCH   7   8
BRANCH   3   4
ATOM      4  O   UNL     1      -9.398  -2.940   0.000  0.00  0.00    -0.494 OA
ATOM      5  C   UNL     1     -10.697  -2.190   0.000  0.00  0.00    +0.277 C 
ENDBRANCH   3   4
TORSDOF 2