REMARK  Name = 193043
REMARK  1 active torsions:
REMARK  status: ('A' for Active; 'I' for Inactive)
REMARK    1  A    between atoms: C_7  and  C_15
REMARK                            x       y       z     vdW  Elec       q    Type
REMARK                         _______ _______ _______ _____ _____    ______ ____
ROOT
ATOM      1 CL   UNL     1       0.750   1.991   0.000  0.00  0.00    -0.065 Cl
ATOM      2  C   UNL     1       2.049   2.741   0.000  0.00  0.00    +0.128 C 
ATOM      3  C   UNL     1       2.049   4.241   0.000  0.00  0.00    +0.076 C 
ATOM      4  C   UNL     1       3.348   4.991   0.000  0.00  0.00    +0.062 C 
ATOM      5  C   UNL     1       4.647   4.241   0.000  0.00  0.00    +0.046 A 
ATOM      6  C   UNL     1       6.074   4.704   0.000  0.00  0.00    +0.035 A 
ATOM      7  C   UNL     1       6.955   3.491   0.000  0.00  0.00    +0.024 A 
ATOM      8  C   UNL     1       6.074   2.277   0.000  0.00  0.00    +0.183 A 
ATOM      9  N   UNL     1       6.684   0.907   0.000  0.00  0.00    -0.129 NA
ATOM     10  N   UNL     1       8.176   0.750   0.000  0.00  0.00    -0.152 NA
ATOM     11  C   UNL     1       9.057   1.964   0.000  0.00  0.00    +0.061 A 
ATOM     12  C   UNL     1      10.549   1.807   0.000  0.00  0.00    +0.067 C 
ATOM     13  C   UNL     1       8.447   3.334   0.000  0.00  0.00    +0.036 A 
ATOM     14  N   UNL     1       4.647   2.741   0.000  0.00  0.00    -0.215 N 
ATOM     15  N   UNL     1       3.348   1.991   0.000  0.00  0.00    -0.158 NA
ENDROOT
TORSDOF 0