REMARK  Name = 180964
REMARK  8 active torsions:
REMARK  status: ('A' for Active; 'I' for Inactive)
REMARK    1  A    between atoms: C_1  and  O_13
REMARK    2  A    between atoms: C_5  and  C_11
REMARK    3  A    between atoms: C_8  and  C_12
REMARK    4  A    between atoms: C_9  and  O_17
REMARK    5  A    between atoms: O_13  and  C_14
REMARK    6  A    between atoms: C_14  and  C_16
REMARK    7  A    between atoms: O_17  and  C_18
REMARK    8  A    between atoms: C_18  and  C_20
REMARK                            x       y       z     vdW  Elec       q    Type
REMARK                         _______ _______ _______ _____ _____    ______ ____
ROOT
ATOM      1  C   UNL     1      -2.049   7.500   0.000  0.00  0.00    +0.136 A 
ATOM      6  C   UNL     1      -3.348   6.750   0.000  0.00  0.00    +0.006 A 
ATOM      7  C   UNL     1      -4.647   7.500   0.000  0.00  0.00    +0.069 C 
ATOM      8  C   UNL     1      -5.946   6.750   0.000  0.00  0.00    -0.069 C 
ATOM      9  C   UNL     1      -7.245   7.500   0.000  0.00  0.00    +0.039 C 
ATOM     10  C   UNL     1      -5.946   5.250   0.000  0.00  0.00    -0.069 C 
ATOM     11  C   UNL     1      -7.245   4.500   0.000  0.00  0.00    +0.039 C 
ATOM     12  C   UNL     1      -4.647   4.500   0.000  0.00  0.00    +0.069 C 
ATOM     13  C   UNL     1      -3.348   5.250   0.000  0.00  0.00    +0.006 A 
ATOM     14  C   UNL     1      -2.049   4.500   0.000  0.00  0.00    +0.136 A 
ATOM     19  C   UNL     1      -0.750   5.250   0.000  0.00  0.00    +0.050 A 
ATOM     20  C   UNL     1      -0.750   6.750   0.000  0.00  0.00    +0.050 A 
ENDROOT
BRANCH   1   2
ATOM      2  O   UNL     1      -2.049   9.000   0.000  0.00  0.00    -0.426 OA
BRANCH   2   3
ATOM      3  C   UNL     1      -3.348   9.750   0.000  0.00  0.00    +0.309 C 
ATOM      4  C   UNL     1      -3.348  11.250   0.000  0.00  0.00    +0.136 C 
ATOM      5  O   UNL     1      -4.647   9.000   0.000  0.00  0.00    -0.251 OA
ENDBRANCH   2   3
ENDBRANCH   1   2
BRANCH  14  15
ATOM     15  O   UNL     1      -2.049   3.000   0.000  0.00  0.00    -0.426 OA
BRANCH  15  16
ATOM     16  C   UNL     1      -3.348   2.250   0.000  0.00  0.00    +0.309 C 
ATOM     17  C   UNL     1      -3.348   0.750   0.000  0.00  0.00    +0.136 C 
ATOM     18  O   UNL     1      -4.647   3.000   0.000  0.00  0.00    -0.251 OA
ENDBRANCH  15  16
ENDBRANCH  14  15
TORSDOF 4