REMARK  Name = 19061
REMARK  3 active torsions:
REMARK  status: ('A' for Active; 'I' for Inactive)
REMARK    1  A    between atoms: N_4  and  C_26
REMARK    2  A    between atoms: C_9  and  N_24
REMARK    3  A    between atoms: C_18  and  N_25
REMARK                            x       y       z     vdW  Elec       q    Type
REMARK                         _______ _______ _______ _____ _____    ______ ____
ROOT
ATOM      8  N   UNL     1       0.375   5.149   0.000  0.00  0.00    -0.282 N 
ATOM      9  H   UNL     1       1.228   4.657   0.000  0.00  0.00    +0.155 HD
ATOM     10  C   UNL     1       0.375   6.649   0.000  0.00  0.00    +0.223 A 
ATOM     11  N   UNL     1      -0.924   7.399   0.000  0.00  0.00    -0.195 NA
ATOM     12  C   UNL     1      -0.924   8.899   0.000  0.00  0.00    +0.165 A 
ATOM     13  C   UNL     1       0.375   9.649   0.000  0.00  0.00    +0.079 A 
ATOM     14  C   UNL     1       0.063  11.117   0.000  0.00  0.00    +0.148 A 
ATOM     15  N   UNL     1      -1.429  11.274   0.000  0.00  0.00    -0.177 NA
ATOM     16  C   UNL     1       1.674   8.899   0.000  0.00  0.00    +0.139 A 
ATOM     17  N   UNL     1       2.973   9.649   0.000  0.00  0.00    -0.298 N 
ATOM     18  H   UNL     1       2.973  10.634   0.000  0.00  0.00    +0.154 HD
ATOM     26  N   UNL     1      -2.039   9.903   0.000  0.00  0.00    -0.249 N 
ATOM     27  C   UNL     1      -3.506   9.591   0.000  0.00  0.00    +0.174 C 
ATOM     28  N   UNL     1       1.674   7.399   0.000  0.00  0.00    -0.198 NA
ENDROOT
BRANCH   8   7
ATOM      1 CL   UNL     1       0.375   2.150   0.000  0.00  0.00    -0.082 Cl
ATOM      2  C   UNL     1      -0.924   2.900   0.000  0.00  0.00    +0.062 A 
ATOM      3  C   UNL     1      -2.223   2.150   0.000  0.00  0.00    +0.022 A 
ATOM      4  C   UNL     1      -3.522   2.900   0.000  0.00  0.00    +0.002 A 
ATOM      5  C   UNL     1      -3.522   4.399   0.000  0.00  0.00    +0.002 A 
ATOM      6  C   UNL     1      -2.223   5.149   0.000  0.00  0.00    +0.025 A 
ATOM      7  C   UNL     1      -0.924   4.399   0.000  0.00  0.00    +0.052 A 
ENDBRANCH   8   7
BRANCH  17  19
ATOM     19  C   UNL     1       4.272   8.899   0.000  0.00  0.00    +0.051 A 
ATOM     20  C   UNL     1       5.571   9.649   0.000  0.00  0.00    +0.025 A 
ATOM     21  C   UNL     1       6.870   8.899   0.000  0.00  0.00    +0.002 A 
ATOM     22  C   UNL     1       6.870   7.399   0.000  0.00  0.00    +0.002 A 
ATOM     23  C   UNL     1       5.571   6.649   0.000  0.00  0.00    +0.022 A 
ATOM     24  C   UNL     1       4.272   7.399   0.000  0.00  0.00    +0.062 A 
ATOM     25 CL   UNL     1       2.973   6.649   0.000  0.00  0.00    -0.082 Cl
ENDBRANCH  17  19
TORSDOF 2