REMARK  Name = 18415
REMARK  6 active torsions:
REMARK  status: ('A' for Active; 'I' for Inactive)
REMARK    1  A    between atoms: C_3  and  N_7
REMARK    2  A    between atoms: C_4  and  O_10
REMARK    3  A    between atoms: N_7  and  C_8
REMARK    4  A    between atoms: C_8  and  C_9
REMARK    5  A    between atoms: C_11  and  C_12
REMARK    6  A    between atoms: C_12  and  C_14
REMARK                            x       y       z     vdW  Elec       q    Type
REMARK                         _______ _______ _______ _____ _____    ______ ____
ROOT
ATOM      1  C   UNL     1      -1.727   1.017   0.000  0.00  0.00    +0.027 A 
ATOM      2  C   UNL     1      -0.950  -0.267   0.000  0.00  0.00    +0.073 A 
ATOM     11  C   UNL     1      -1.673  -1.581   0.000  0.00  0.00    +0.138 A 
ATOM     14  C   UNL     1      -3.173  -1.612   0.000  0.00  0.00    +0.047 A 
ATOM     15  C   UNL     1      -3.950  -0.329   0.000  0.00  0.00    +0.004 A 
ATOM     16  C   UNL     1      -3.227   0.985   0.000  0.00  0.00    +0.002 A 
ENDROOT
BRANCH   2   3
ATOM      3  N   UNL     1       0.549  -0.235   0.000  0.00  0.00    -0.315 N 
ATOM      4  H   UNL     1       1.131  -1.030   0.000  0.00  0.00    +0.152 HD
BRANCH   3   5
ATOM      5  C   UNL     1       1.033   1.185   0.000  0.00  0.00    +0.008 C 
ATOM      6  C   UNL     1       2.504   1.476   0.000  0.00  0.00    +0.064 C 
ATOM     10  C   UNL     1       0.045   2.313   0.000  0.00  0.00    +0.061 C 
BRANCH   6   7
ATOM      7  C   UNL     1       2.988   2.896   0.000  0.00  0.00    +0.154 C 
ATOM      8  C   UNL     1       4.459   3.187   0.000  0.00  0.00    +0.091 C 
ATOM      9  O   UNL     1       2.000   4.025   0.000  0.00  0.00    -0.293 OA
ENDBRANCH   6   7
ENDBRANCH   3   5
ENDBRANCH   2   3
BRANCH  11  12
ATOM     12  O   UNL     1      -0.896  -2.864   0.000  0.00  0.00    -0.505 OA
ATOM     13  H   UNL     1      -1.348  -3.685   0.000  0.00  0.00    +0.292 HD
ENDBRANCH  11  12
TORSDOF 4