REMARK  Name = 176765
REMARK  3 active torsions:
REMARK  status: ('A' for Active; 'I' for Inactive)
REMARK    1  A    between atoms: N_3  and  C_6
REMARK    2  A    between atoms: N_11  and  C_12
REMARK    3  A    between atoms: N_11  and  C_13
REMARK                            x       y       z     vdW  Elec       q    Type
REMARK                         _______ _______ _______ _____ _____    ______ ____
ROOT
ATOM      1 CL   UNL     1      -9.843  -2.250   0.000  0.00  0.00    -0.082 Cl
ATOM      2  C   UNL     1      -8.544  -3.000   0.000  0.00  0.00    +0.061 A 
ATOM      3  C   UNL     1      -8.544  -4.500   0.000  0.00  0.00    +0.059 A 
ATOM      4  C   UNL     1      -7.245  -5.250   0.000  0.00  0.00    +0.023 A 
ATOM      5  C   UNL     1      -5.946  -4.500   0.000  0.00  0.00    +0.029 A 
ATOM      6  C   UNL     1      -5.946  -3.000   0.000  0.00  0.00    +0.067 A 
ATOM     12 CL   UNL     1      -9.843  -5.250   0.000  0.00  0.00    -0.082 Cl
ATOM     13  C   UNL     1      -7.245  -2.250   0.000  0.00  0.00    +0.049 A 
ENDROOT
BRANCH   6   7
ATOM      7  N   UNL     1      -4.647  -2.250   0.000  0.00  0.00    -0.240 NA
ATOM      8  C   UNL     1      -3.348  -3.000   0.000  0.00  0.00    +0.184 C 
ATOM      9  N   UNL     1      -2.049  -2.250   0.000  0.00  0.00    -0.327 N 
ATOM     10  C   UNL     1      -0.750  -3.000   0.000  0.00  0.00    +0.129 C 
ATOM     11  C   UNL     1      -2.049  -0.750   0.000  0.00  0.00    +0.129 C 
ENDBRANCH   6   7
TORSDOF 1