REMARK  Name = 191441
REMARK  7 active torsions:
REMARK  status: ('A' for Active; 'I' for Inactive)
REMARK    1  A    between atoms: C_2  and  N_25
REMARK    2  A    between atoms: C_5  and  C_26
REMARK    3  A    between atoms: C_8  and  O_21
REMARK    4  A    between atoms: C_9  and  O_22
REMARK    5  A    between atoms: C_14  and  C_19
REMARK    6  A    between atoms: C_19  and  O_21
REMARK    7  A    between atoms: O_22  and  C_23
REMARK                            x       y       z     vdW  Elec       q    Type
REMARK                         _______ _______ _______ _____ _____    ______ ____
ROOT
ATOM      8  C   UNL     1      -2.530 -10.382   0.000  0.00  0.00    +0.137 A 
ATOM      9  C   UNL     1      -3.829  -9.632   0.000  0.00  0.00    +0.046 A 
ATOM     10  C   UNL     1      -3.829  -8.132   0.000  0.00  0.00    +0.007 A 
ATOM     11  C   UNL     1      -2.530  -7.382   0.000  0.00  0.00    +0.046 A 
ATOM     12  C   UNL     1      -1.231  -8.132   0.000  0.00  0.00    +0.135 A 
ATOM     22  C   UNL     1      -1.231  -9.632   0.000  0.00  0.00    +0.092 A 
ENDROOT
BRANCH   8   7
ATOM      7  O   UNL     1      -2.530 -11.882   0.000  0.00  0.00    -0.411 OA
BRANCH   7   5
ATOM      3  N   UNL     1       0.068 -11.882   0.000  0.00  0.00    -0.251 N 
ATOM      4  H   UNL     1       0.068 -10.898   0.000  0.00  0.00    +0.158 HD
ATOM      5  C   UNL     1      -1.231 -12.632   0.000  0.00  0.00    +0.410 C 
ATOM      6  O   UNL     1      -1.231 -14.132   0.000  0.00  0.00    -0.226 OA
BRANCH   3   2
ATOM      1  C   UNL     1       2.666 -11.882   0.000  0.00  0.00    +0.023 A 
ATOM      2  C   UNL     1       1.367 -12.632   0.000  0.00  0.00    +0.039 A 
ATOM     23  C   UNL     1       1.367 -14.132   0.000  0.00  0.00    -0.029 A 
ATOM     24  C   UNL     1       0.068 -14.882   0.000  0.00  0.00    +0.045 C 
ATOM     25  C   UNL     1       2.666 -14.882   0.000  0.00  0.00    +0.005 A 
ATOM     26  C   UNL     1       3.965 -14.132   0.000  0.00  0.00    +0.000 A 
ATOM     27  C   UNL     1       3.965 -12.632   0.000  0.00  0.00    +0.002 A 
ENDBRANCH   3   2
ENDBRANCH   7   5
ENDBRANCH   8   7
BRANCH  12  13
ATOM     13  O   UNL     1       0.068  -7.382   0.000  0.00  0.00    -0.422 OA
BRANCH  13  14
ATOM     14  C   UNL     1       1.367  -8.132   0.000  0.00  0.00    +0.344 C 
ATOM     15  O   UNL     1       1.367  -9.632   0.000  0.00  0.00    -0.245 OA
BRANCH  14  16
ATOM     16  C   UNL     1       2.666  -7.382   0.000  0.00  0.00    +0.059 A 
ATOM     17  C   UNL     1       2.666  -5.882   0.000  0.00  0.00    +0.015 A 
ATOM     18  C   UNL     1       3.965  -5.132   0.000  0.00  0.00    +0.001 A 
ATOM     19  C   UNL     1       5.264  -5.882   0.000  0.00  0.00    +0.000 A 
ATOM     20  C   UNL     1       5.264  -7.382   0.000  0.00  0.00    +0.001 A 
ATOM     21  C   UNL     1       3.965  -8.132   0.000  0.00  0.00    +0.015 A 
ENDBRANCH  14  16
ENDBRANCH  13  14
ENDBRANCH  12  13
TORSDOF 6