REMARK  Name = 174027
REMARK  6 active torsions:
REMARK  status: ('A' for Active; 'I' for Inactive)
REMARK    1  A    between atoms: C_4  and  O_8
REMARK    2  A    between atoms: C_5  and  C_10
REMARK    3  A    between atoms: O_8  and  C_9
REMARK    4  A    between atoms: C_10  and  C_11
REMARK    5  A    between atoms: C_11  and  C_13
REMARK    6  A    between atoms: C_13  and  O_15
REMARK                            x       y       z     vdW  Elec       q    Type
REMARK                         _______ _______ _______ _____ _____    ______ ____
ROOT
ATOM      1  O   UNL     1       4.647   0.750   0.000  0.00  0.00    -0.245 OA
ATOM      2  C   UNL     1       4.647   2.250   0.000  0.00  0.00    +0.340 A 
ATOM      3  C   UNL     1       3.348   3.000   0.000  0.00  0.00    +0.137 A 
ATOM      4  C   UNL     1       3.348   4.500   0.000  0.00  0.00    +0.130 A 
ATOM      7  C   UNL     1       4.647   5.250   0.000  0.00  0.00    +0.088 A 
ATOM      8  C   UNL     1       5.946   4.500   0.000  0.00  0.00    +0.120 A 
ATOM     16  O   UNL     1       5.946   3.000   0.000  0.00  0.00    -0.427 OA
ENDROOT
BRANCH   4   5
ATOM      5  O   UNL     1       2.049   5.250   0.000  0.00  0.00    -0.495 OA
ATOM      6  C   UNL     1       0.750   4.500   0.000  0.00  0.00    +0.277 C 
ENDBRANCH   4   5
BRANCH   8   9
ATOM      9  C   UNL     1       7.245   5.250   0.000  0.00  0.00    +0.161 C 
BRANCH   9  10
ATOM     10  C   UNL     1       8.544   4.500   0.000  0.00  0.00    +0.246 C 
ATOM     15  O   UNL     1       9.843   5.250   0.000  0.00  0.00    -0.285 OA
BRANCH  10  11
ATOM     11  C   UNL     1       8.544   3.000   0.000  0.00  0.00    +0.373 C 
ATOM     14  O   UNL     1       9.843   2.250   0.000  0.00  0.00    -0.242 OA
BRANCH  11  12
ATOM     12  O   UNL     1       7.245   2.250   0.000  0.00  0.00    -0.475 OA
ATOM     13  H   UNL     1       6.434   2.718   0.000  0.00  0.00    +0.295 HD
ENDBRANCH  11  12
ENDBRANCH  10  11
ENDBRANCH   9  10
ENDBRANCH   8   9
TORSDOF 5