REMARK  Name = 173969
REMARK  1 active torsions:
REMARK  status: ('A' for Active; 'I' for Inactive)
REMARK    1  A    between atoms: C_6  and  C_12
REMARK                            x       y       z     vdW  Elec       q    Type
REMARK                         _______ _______ _______ _____ _____    ______ ____
ROOT
ATOM      1  N   UNL     1      -2.030   1.315   0.000  0.00  0.00    -0.237 NA
ATOM      2  C   UNL     1      -0.594   0.883   0.000  0.00  0.00    +0.139 A 
ATOM      3  C   UNL     1      -0.250  -0.577   0.000  0.00  0.00    +0.029 A 
ATOM      4  C   UNL     1      -1.342  -1.605   0.000  0.00  0.00    +0.014 A 
ATOM      5  C   UNL     1      -2.778  -1.173   0.000  0.00  0.00    +0.020 A 
ATOM      6  C   UNL     1       1.245  -0.701   0.000  0.00  0.00    +0.041 A 
ATOM      9  C   UNL     1       1.825   0.683   0.000  0.00  0.00    +0.096 A 
ATOM     10  N   UNL     1       0.688   1.662   0.000  0.00  0.00    -0.345 N 
ATOM     11  H   UNL     1       0.812   3.157   0.000  0.00  0.00    +0.167 HD
ATOM     12  C   UNL     1      -3.123   0.287   0.000  0.00  0.00    +0.113 A 
ENDROOT
BRANCH   6   7
ATOM      7  C   UNL     1       2.024  -1.983   0.000  0.00  0.00    +0.260 C 
ATOM      8  O   UNL     1       3.523  -1.949   0.000  0.00  0.00    -0.296 OA
ENDBRANCH   6   7
TORSDOF 1