REMARK  Name = 19219
REMARK  3 active torsions:
REMARK  status: ('A' for Active; 'I' for Inactive)
REMARK    1  A    between atoms: C_5  and  C_14
REMARK    2  A    between atoms: C_7  and  O_13
REMARK    3  A    between atoms: C_11  and  C_15
REMARK                            x       y       z     vdW  Elec       q    Type
REMARK                         _______ _______ _______ _____ _____    ______ ____
ROOT
ATOM      7  C   UNL     1      -0.750   5.250   0.000  0.00  0.00    +0.030 C 
ATOM      8  C   UNL     1      -0.750   3.750   0.000  0.00  0.00    +0.010 C 
ENDROOT
BRANCH   7   6
ATOM      1  N   UNL     1      -3.348   5.250   0.000  0.00  0.00    -0.253 NA
ATOM      2  C   UNL     1      -4.647   6.000   0.000  0.00  0.00    +0.131 A 
ATOM      3  C   UNL     1      -4.647   7.500   0.000  0.00  0.00    +0.130 A 
ATOM      4  N   UNL     1      -3.348   8.250   0.000  0.00  0.00    -0.260 NA
ATOM      5  C   UNL     1      -2.049   7.500   0.000  0.00  0.00    +0.138 A 
ATOM      6  C   UNL     1      -2.049   6.000   0.000  0.00  0.00    +0.082 A 
ENDBRANCH   7   6
BRANCH   8   9
ATOM      9  C   UNL     1      -2.049   3.000   0.000  0.00  0.00    -0.025 A 
ATOM     10  C   UNL     1      -2.049   1.500   0.000  0.00  0.00    +0.011 A 
ATOM     11  C   UNL     1      -3.348   0.750   0.000  0.00  0.00    +0.046 A 
ATOM     12  C   UNL     1      -4.647   1.500   0.000  0.00  0.00    +0.117 A 
ATOM     15  C   UNL     1      -4.647   3.000   0.000  0.00  0.00    +0.046 A 
ATOM     16  C   UNL     1      -3.348   3.750   0.000  0.00  0.00    +0.011 A 
BRANCH  12  13
ATOM     13  O   UNL     1      -5.946   0.750   0.000  0.00  0.00    -0.507 OA
ATOM     14  H   UNL     1      -6.758   1.219   0.000  0.00  0.00    +0.292 HD
ENDBRANCH  12  13
ENDBRANCH   8   9
TORSDOF 3