REMARK  Name = 19063
REMARK  2 active torsions:
REMARK  status: ('A' for Active; 'I' for Inactive)
REMARK    1  A    between atoms: C_14  and  S_15
REMARK    2  A    between atoms: S_15  and  C_16
REMARK                            x       y       z     vdW  Elec       q    Type
REMARK                         _______ _______ _______ _____ _____    ______ ____
ROOT
ATOM      1  N   UNL     1      -7.156  -3.000   0.000  0.00  0.00    -0.214 NA
ATOM      2  C   UNL     1      -5.857  -2.250   0.000  0.00  0.00    +0.137 A 
ATOM      3  C   UNL     1      -4.558  -3.000   0.000  0.00  0.00    +0.115 A 
ATOM      4  C   UNL     1      -4.558  -4.500   0.000  0.00  0.00    +0.139 A 
ATOM      5  N   UNL     1      -3.132  -4.963   0.000  0.00  0.00    -0.320 N 
ATOM      6  H   UNL     1      -2.668  -6.390   0.000  0.00  0.00    +0.169 HD
ATOM      7  C   UNL     1      -2.250  -3.750   0.000  0.00  0.00    +0.157 A 
ATOM      8  S   UNL     1      -0.750  -3.750   0.000  0.00  0.00    -0.013 S 
ATOM      9  N   UNL     1      -5.857  -5.250   0.000  0.00  0.00    -0.319 N 
ATOM     10  H   UNL     1      -5.857  -6.750   0.000  0.00  0.00    +0.169 HD
ATOM     11  N   UNL     1      -3.132  -2.537   0.000  0.00  0.00    -0.330 N 
ATOM     12  H   UNL     1      -2.668  -1.110   0.000  0.00  0.00    +0.168 HD
ATOM     13  S   UNL     1      -5.857  -0.750   0.000  0.00  0.00    -0.028 S 
ATOM     14  C   UNL     1      -7.156  -4.500   0.000  0.00  0.00    +0.169 A 
ENDROOT
BRANCH  14  15
ATOM     15  S   UNL     1      -8.455  -5.250   0.000  0.00  0.00    -0.091 S 
ATOM     16  C   UNL     1      -9.754  -4.500   0.000  0.00  0.00    +0.093 C 
ENDBRANCH  14  15
TORSDOF 1