REMARK  Name = 177989
REMARK  9 active torsions:
REMARK  status: ('A' for Active; 'I' for Inactive)
REMARK    1  A    between atoms: C_3  and  C_4
REMARK    2  A    between atoms: C_3  and  O_5
REMARK    3  A    between atoms: O_5  and  C_17
REMARK    4  A    between atoms: C_6  and  C_9
REMARK    5  A    between atoms: C_12  and  C_14
REMARK    6  A    between atoms: C_14  and  O_16
REMARK    7  A    between atoms: O_16  and  C_19
REMARK    8  A    between atoms: C_17  and  C_18
REMARK    9  A    between atoms: C_19  and  C_20
REMARK                            x       y       z     vdW  Elec       q    Type
REMARK                         _______ _______ _______ _____ _____    ______ ____
ROOT
ATOM      8  C   UNL     1       7.327   3.399   0.000  0.00  0.00    +0.040 A 
ATOM      9  N   UNL     1       8.540   2.518   0.000  0.00  0.00    -0.350 N 
ATOM     10  C   UNL     1       9.754   3.399   0.000  0.00  0.00    +0.125 A 
ATOM     16  C   UNL     1       9.290   4.826   0.000  0.00  0.00    +0.035 A 
ATOM     17  H   UNL     1       8.540   1.018   0.000  0.00  0.00    +0.166 HD
ATOM     18  C   UNL     1       7.790   4.826   0.000  0.00  0.00    +0.028 A 
ENDROOT
BRANCH   8   7
ATOM      6  C   UNL     1       4.785   3.939   0.000  0.00  0.00    +0.093 C 
ATOM      7  C   UNL     1       5.900   2.936   0.000  0.00  0.00    +0.032 C 
BRANCH   6   2
ATOM      1  O   UNL     1       2.244   4.479   0.000  0.00  0.00    -0.246 OA
ATOM      2  C   UNL     1       3.359   3.476   0.000  0.00  0.00    +0.332 C 
BRANCH   2   3
ATOM      3  O   UNL     1       3.047   2.009   0.000  0.00  0.00    -0.462 OA
BRANCH   3   4
ATOM      4  C   UNL     1       4.162   1.005   0.000  0.00  0.00    +0.229 C 
ATOM      5  C   UNL     1       3.850  -0.462   0.000  0.00  0.00    +0.048 C 
ENDBRANCH   3   4
ENDBRANCH   2   3
ENDBRANCH   6   2
ENDBRANCH   8   7
BRANCH  10  11
ATOM     11  C   UNL     1      11.180   2.936   0.000  0.00  0.00    +0.356 C 
ATOM     15  O   UNL     1      12.295   3.939   0.000  0.00  0.00    -0.243 OA
BRANCH  11  12
ATOM     12  O   UNL     1      11.492   1.468   0.000  0.00  0.00    -0.460 OA
BRANCH  12  13
ATOM     13  C   UNL     1      12.919   1.005   0.000  0.00  0.00    +0.229 C 
ATOM     14  C   UNL     1      14.034   2.009   0.000  0.00  0.00    +0.048 C 
ENDBRANCH  12  13
ENDBRANCH  11  12
ENDBRANCH  10  11
TORSDOF 7