REMARK  Name = 177952
REMARK  2 active torsions:
REMARK  status: ('A' for Active; 'I' for Inactive)
REMARK    1  A    between atoms: C_8  and  C_10
REMARK    2  A    between atoms: C_10  and  O_12
REMARK                            x       y       z     vdW  Elec       q    Type
REMARK                         _______ _______ _______ _____ _____    ______ ____
ROOT
ATOM      1  H   UNL     1      -4.274  -1.022   0.000  0.00  0.00    +0.190 HD
ATOM      2  N   UNL     1      -2.805  -0.719   0.000  0.00  0.00    -0.264 N 
ATOM      3  C   UNL     1      -1.696  -1.729   0.000  0.00  0.00    +0.217 A 
ATOM      4  N   UNL     1      -0.392  -0.987   0.000  0.00  0.00    -0.202 NA
ATOM      5  C   UNL     1      -0.695   0.482   0.000  0.00  0.00    +0.241 A 
ATOM      6  N   UNL     1       0.315   1.590   0.000  0.00  0.00    -0.244 N 
ATOM      7  H   UNL     1       0.017   2.528   0.000  0.00  0.00    +0.158 HD
ATOM      8  C   UNL     1       1.781   1.269   0.000  0.00  0.00    +0.328 C 
ATOM     13  O   UNL     1       2.791   2.378   0.000  0.00  0.00    -0.263 OA
ATOM     14  N   UNL     1      -2.186   0.648   0.000  0.00  0.00    -0.136 NA
ENDROOT
BRANCH   8   9
ATOM      9  C   UNL     1       2.235  -0.160   0.000  0.00  0.00    +0.393 C 
ATOM     12  O   UNL     1       3.701  -0.481   0.000  0.00  0.00    -0.240 OA
BRANCH   9  10
ATOM     10  O   UNL     1       1.225  -1.269   0.000  0.00  0.00    -0.474 OA
ATOM     11  H   UNL     1       0.309  -1.068   0.000  0.00  0.00    +0.296 HD
ENDBRANCH   9  10
ENDBRANCH   8   9
TORSDOF 2