REMARK  Name = 19125
REMARK  3 active torsions:
REMARK  status: ('A' for Active; 'I' for Inactive)
REMARK    1  A    between atoms: N_4  and  C_19
REMARK    2  A    between atoms: C_11  and  N_17
REMARK    3  A    between atoms: C_16  and  O_18
REMARK                            x       y       z     vdW  Elec       q    Type
REMARK                         _______ _______ _______ _____ _____    ______ ____
ROOT
ATOM      1 CL   UNL     1       1.025  -0.275   0.000  0.00  0.00    -0.041 Cl
ATOM      2  C   UNL     1       2.324  -1.025   0.000  0.00  0.00    +0.226 A 
ATOM      3  N   UNL     1       3.623  -0.275   0.000  0.00  0.00    -0.198 NA
ATOM      4  C   UNL     1       4.922  -1.025   0.000  0.00  0.00    +0.164 A 
ATOM      5  C   UNL     1       4.922  -2.525   0.000  0.00  0.00    +0.079 A 
ATOM      6  C   UNL     1       6.348  -2.988   0.000  0.00  0.00    +0.148 A 
ATOM      7  N   UNL     1       7.230  -1.775   0.000  0.00  0.00    -0.177 NA
ATOM      8  C   UNL     1       3.623  -3.275   0.000  0.00  0.00    +0.138 A 
ATOM      9  N   UNL     1       3.623  -4.774   0.000  0.00  0.00    -0.299 N 
ATOM     10  H   UNL     1       2.770  -5.267   0.000  0.00  0.00    +0.154 HD
ATOM     19  N   UNL     1       6.348  -0.561   0.000  0.00  0.00    -0.249 N 
ATOM     20  C   UNL     1       6.812   0.866   0.000  0.00  0.00    +0.174 C 
ATOM     21  N   UNL     1       2.324  -2.525   0.000  0.00  0.00    -0.202 NA
ENDROOT
BRANCH   9  11
ATOM     11  C   UNL     1       4.922  -5.524   0.000  0.00  0.00    +0.033 A 
ATOM     12  C   UNL     1       4.922  -7.024   0.000  0.00  0.00    +0.027 A 
ATOM     13  C   UNL     1       6.221  -7.774   0.000  0.00  0.00    +0.047 A 
ATOM     14  C   UNL     1       7.520  -7.024   0.000  0.00  0.00    +0.117 A 
ATOM     17  C   UNL     1       7.520  -5.524   0.000  0.00  0.00    +0.047 A 
ATOM     18  C   UNL     1       6.221  -4.774   0.000  0.00  0.00    +0.027 A 
BRANCH  14  15
ATOM     15  O   UNL     1       8.819  -7.774   0.000  0.00  0.00    -0.507 OA
ATOM     16  H   UNL     1       8.819  -8.711   0.000  0.00  0.00    +0.292 HD
ENDBRANCH  14  15
ENDBRANCH   9  11
TORSDOF 2