REMARK  Name = 176736
REMARK  2 active torsions:
REMARK  status: ('A' for Active; 'I' for Inactive)
REMARK    1  A    between atoms: C_7  and  C_18
REMARK    2  A    between atoms: C_13  and  N_17
REMARK                            x       y       z     vdW  Elec       q    Type
REMARK                         _______ _______ _______ _____ _____    ______ ____
ROOT
ATOM      7  N   UNL     1       5.946  -5.918   0.000  0.00  0.00    -0.281 N 
ATOM      8  H   UNL     1       6.799  -6.411   0.000  0.00  0.00    +0.155 HD
ATOM      9  C   UNL     1       5.946  -4.418   0.000  0.00  0.00    +0.248 C 
ATOM     10  O   UNL     1       7.245  -3.668   0.000  0.00  0.00    -0.270 OA
ENDROOT
BRANCH   7   6
ATOM      1 CL   UNL     1       0.750  -5.918   0.000  0.00  0.00    -0.082 Cl
ATOM      2  C   UNL     1       2.049  -6.668   0.000  0.00  0.00    +0.061 A 
ATOM      3  C   UNL     1       2.049  -8.168   0.000  0.00  0.00    +0.059 A 
ATOM      4  C   UNL     1       3.348  -8.918   0.000  0.00  0.00    +0.023 A 
ATOM      5  C   UNL     1       4.647  -8.168   0.000  0.00  0.00    +0.025 A 
ATOM      6  C   UNL     1       4.647  -6.668   0.000  0.00  0.00    +0.035 A 
ATOM     19 CL   UNL     1       0.750  -8.918   0.000  0.00  0.00    -0.082 Cl
ATOM     20  C   UNL     1       3.348  -5.918   0.000  0.00  0.00    +0.044 A 
ENDBRANCH   7   6
BRANCH   9  11
ATOM     11  C   UNL     1       4.647  -3.668   0.000  0.00  0.00    +0.038 A 
ATOM     12  C   UNL     1       4.647  -2.168   0.000  0.00  0.00    +0.014 A 
ATOM     13  C   UNL     1       3.348  -1.418   0.000  0.00  0.00    +0.022 A 
ATOM     14  C   UNL     1       2.049  -2.168   0.000  0.00  0.00    +0.059 A 
ATOM     15  C   UNL     1       2.049  -3.668   0.000  0.00  0.00    +0.060 A 
ATOM     16 CL   UNL     1       0.750  -4.418   0.000  0.00  0.00    -0.082 Cl
ATOM     17 CL   UNL     1       0.750  -1.418   0.000  0.00  0.00    -0.082 Cl
ATOM     18  C   UNL     1       3.348  -4.418   0.000  0.00  0.00    +0.034 A 
ENDBRANCH   9  11
TORSDOF 2