REMARK  Name = 191029
REMARK  5 active torsions:
REMARK  status: ('A' for Active; 'I' for Inactive)
REMARK    1  A    between atoms: C_5  and  C_7
REMARK    2  A    between atoms: C_8  and  C_10
REMARK    3  A    between atoms: C_10  and  C_11
REMARK    4  A    between atoms: C_11  and  C_12
REMARK    5  A    between atoms: C_12  and  C_13
REMARK                            x       y       z     vdW  Elec       q    Type
REMARK                         _______ _______ _______ _____ _____    ______ ____
ROOT
ATOM      1  N   UNL     1       0.263   6.455   0.000  0.00  0.00    -0.301 N 
ATOM      2  C   UNL     1       1.562   7.205   0.000  0.00  0.00    +0.216 C 
ATOM      7  O   UNL     1       2.861   6.455   0.000  0.00  0.00    -0.276 OA
ATOM      8  C   UNL     1       0.263   4.955   0.000  0.00  0.00    +0.111 C 
ATOM      9  C   UNL     1      -1.036   4.205   0.000  0.00  0.00    +0.003 C 
ATOM     10  C   UNL     1      -1.036   2.705   0.000  0.00  0.00    +0.009 C 
ATOM     11  C   UNL     1      -2.335   4.955   0.000  0.00  0.00    +0.006 C 
ATOM     12  C   UNL     1      -2.335   6.455   0.000  0.00  0.00    +0.019 C 
ATOM     13  C   UNL     1      -1.036   7.205   0.000  0.00  0.00    +0.108 C 
ENDROOT
BRANCH   2   3
ATOM      3  C   UNL     1       1.562   8.705   0.000  0.00  0.00    +0.096 C 
BRANCH   3   4
ATOM      4  C   UNL     1       0.263   9.455   0.000  0.00  0.00    +0.009 C 
BRANCH   4   5
ATOM      5  C   UNL     1      -1.036   8.705   0.000  0.00  0.00    -0.003 C 
ATOM      6  C   UNL     1      -2.336   9.455   0.000  0.00  0.00    +0.004 C 
ENDBRANCH   4   5
ENDBRANCH   3   4
ENDBRANCH   2   3
TORSDOF 3