REMARK  Name = 190501
REMARK  2 active torsions:
REMARK  status: ('A' for Active; 'I' for Inactive)
REMARK    1  A    between atoms: C_4  and  N_18
REMARK    2  A    between atoms: C_10  and  N_15
REMARK                            x       y       z     vdW  Elec       q    Type
REMARK                         _______ _______ _______ _____ _____    ______ ____
ROOT
ATOM      8  N   UNL     1      -2.049   3.750   0.000  0.00  0.00    -0.268 N 
ATOM      9  H   UNL     1      -1.196   3.258   0.000  0.00  0.00    +0.156 HD
ATOM     10  C   UNL     1      -2.049   5.250   0.000  0.00  0.00    +0.308 C 
ATOM     11  N   UNL     1      -3.348   6.000   0.000  0.00  0.00    -0.269 N 
ATOM     12  H   UNL     1      -4.201   5.508   0.000  0.00  0.00    +0.156 HD
ATOM     20  O   UNL     1      -0.750   6.000   0.000  0.00  0.00    -0.252 OA
ENDROOT
BRANCH   8   7
ATOM      1 CL   UNL     1      -2.049   0.750   0.000  0.00  0.00    -0.082 Cl
ATOM      2  C   UNL     1      -3.348   1.500   0.000  0.00  0.00    +0.062 A 
ATOM      3  C   UNL     1      -4.647   0.750   0.000  0.00  0.00    +0.022 A 
ATOM      4  C   UNL     1      -5.946   1.500   0.000  0.00  0.00    +0.002 A 
ATOM      5  C   UNL     1      -5.946   3.000   0.000  0.00  0.00    +0.002 A 
ATOM      6  C   UNL     1      -4.647   3.750   0.000  0.00  0.00    +0.025 A 
ATOM      7  C   UNL     1      -3.348   3.000   0.000  0.00  0.00    +0.053 A 
ENDBRANCH   8   7
BRANCH  11  13
ATOM     13  C   UNL     1      -3.348   7.500   0.000  0.00  0.00    +0.035 A 
ATOM     14  C   UNL     1      -2.049   8.250   0.000  0.00  0.00    +0.024 A 
ATOM     15  C   UNL     1      -2.049   9.750   0.000  0.00  0.00    +0.017 A 
ATOM     16  C   UNL     1      -3.348  10.500   0.000  0.00  0.00    +0.018 A 
ATOM     17  C   UNL     1      -4.647   9.750   0.000  0.00  0.00    +0.017 A 
ATOM     18 BR   UNL     1      -3.348  12.000   0.000  0.00  0.00    -0.050 Br
ATOM     19  C   UNL     1      -4.647   8.250   0.000  0.00  0.00    +0.024 A 
ENDBRANCH  11  13
TORSDOF 2