REMARK  Name = 186200
REMARK  8 active torsions:
REMARK  status: ('A' for Active; 'I' for Inactive)
REMARK    1  A    between atoms: C_1  and  C_8
REMARK    2  A    between atoms: C_1  and  C_22
REMARK    3  A    between atoms: N_2  and  O_26
REMARK    4  A    between atoms: C_11  and  C_21
REMARK    5  A    between atoms: C_16  and  C_23
REMARK    6  A    between atoms: C_21  and  C_22
REMARK    7  A    between atoms: C_21  and  C_23
REMARK    8  A    between atoms: C_23  and  C_24
REMARK                            x       y       z     vdW  Elec       q    Type
REMARK                         _______ _______ _______ _____ _____    ______ ____
ROOT
ATOM      3  C   UNL     1       4.647  -7.500   0.000  0.00  0.00    +0.046 C 
ENDROOT
BRANCH   3  13
ATOM     13  C   UNL     1       3.348  -8.250   0.000  0.00  0.00    -0.042 A 
ATOM     14  C   UNL     1       3.348  -9.750   0.000  0.00  0.00    +0.004 A 
ATOM     15  C   UNL     1       2.049 -10.500   0.000  0.00  0.00    +0.000 A 
ATOM     16  C   UNL     1       0.750  -9.750   0.000  0.00  0.00    +0.000 A 
ATOM     17  C   UNL     1       0.750  -8.250   0.000  0.00  0.00    +0.000 A 
ATOM     18  C   UNL     1       2.049  -7.500   0.000  0.00  0.00    +0.004 A 
ENDBRANCH   3  13
BRANCH   3   2
ATOM      2  C   UNL     1       4.647  -6.000   0.000  0.00  0.00    +0.069 C 
BRANCH   2   1
ATOM      1  C   UNL     1       5.946  -5.250   0.000  0.00  0.00    +0.088 C 
ATOM     25  N   UNL     1       7.245  -6.000   0.000  0.00  0.00    -0.092 NA
BRANCH   1  19
ATOM     19  C   UNL     1       5.946  -3.750   0.000  0.00  0.00    -0.001 A 
ATOM     20  C   UNL     1       7.245  -3.000   0.000  0.00  0.00    +0.010 A 
ATOM     21  C   UNL     1       7.245  -1.500   0.000  0.00  0.00    +0.001 A 
ATOM     22  C   UNL     1       5.946  -0.750   0.000  0.00  0.00    +0.000 A 
ATOM     23  C   UNL     1       4.647  -1.500   0.000  0.00  0.00    +0.001 A 
ATOM     24  C   UNL     1       4.647  -3.000   0.000  0.00  0.00    +0.010 A 
ENDBRANCH   1  19
BRANCH  25  26
ATOM     26  O   UNL     1       7.245  -7.500   0.000  0.00  0.00    -0.409 OA
ATOM     27  H   UNL     1       6.434  -7.968   0.000  0.00  0.00    +0.328 HD
ENDBRANCH  25  26
ENDBRANCH   2   1
ENDBRANCH   3   2
BRANCH   3   4
ATOM      4  C   UNL     1       5.946  -8.250   0.000  0.00  0.00    +0.129 C 
BRANCH   4   7
ATOM      7  C   UNL     1       5.946  -9.750   0.000  0.00  0.00    -0.030 A 
ATOM      8  C   UNL     1       4.647 -10.500   0.000  0.00  0.00    +0.005 A 
ATOM      9  C   UNL     1       4.647 -12.000   0.000  0.00  0.00    +0.000 A 
ATOM     10  C   UNL     1       5.946 -12.750   0.000  0.00  0.00    +0.000 A 
ATOM     11  C   UNL     1       7.245 -12.000   0.000  0.00  0.00    +0.000 A 
ATOM     12  C   UNL     1       7.245 -10.500   0.000  0.00  0.00    +0.005 A 
ENDBRANCH   4   7
BRANCH   4   5
ATOM      5  C   UNL     1       7.245  -7.500   0.000  0.00  0.00    +0.071 C 
ATOM      6  N   UNL     1       8.544  -6.750   0.000  0.00  0.00    -0.196 NA
ENDBRANCH   4   5
ENDBRANCH   3   4
TORSDOF 8