REMARK  Name = 186194
REMARK  8 active torsions:
REMARK  status: ('A' for Active; 'I' for Inactive)
REMARK    1  A    between atoms: N_1  and  C_17
REMARK    2  A    between atoms: N_3  and  C_6
REMARK    3  A    between atoms: C_11  and  N_14
REMARK    4  A    between atoms: C_13  and  C_19
REMARK    5  A    between atoms: C_17  and  C_18
REMARK    6  A    between atoms: C_18  and  O_20
REMARK    7  A    between atoms: O_20  and  C_21
REMARK    8  A    between atoms: C_21  and  C_23
REMARK                            x       y       z     vdW  Elec       q    Type
REMARK                         _______ _______ _______ _____ _____    ______ ____
ROOT
ATOM      1  N   UNL     1     -10.487  -1.401   0.000  0.00  0.00    -0.259 N 
ATOM      8  C   UNL     1     -10.330  -2.892   0.000  0.00  0.00    +0.204 A 
ATOM     18  N   UNL     1     -11.700  -3.502   0.000  0.00  0.00    -0.224 NA
ATOM     19  C   UNL     1     -12.704  -2.388   0.000  0.00  0.00    +0.218 A 
ATOM     20  C   UNL     1     -11.954  -1.089   0.000  0.00  0.00    +0.368 A 
ENDROOT
BRANCH   8   9
ATOM      9  C   UNL     1      -9.031  -3.642   0.000  0.00  0.00    +0.363 C 
ATOM     10  N   UNL     1      -7.732  -2.892   0.000  0.00  0.00    -0.204 N 
ATOM     17  O   UNL     1      -7.732  -1.392   0.000  0.00  0.00    -0.624 OA
BRANCH  10  11
ATOM     11  C   UNL     1      -6.433  -3.642   0.000  0.00  0.00    +0.273 C 
ATOM     12  C   UNL     1      -6.433  -5.142   0.000  0.00  0.00    +0.077 C 
ATOM     13  C   UNL     1      -5.134  -5.892   0.000  0.00  0.00    +0.006 C 
ATOM     14  C   UNL     1      -3.835  -5.142   0.000  0.00  0.00    +0.000 C 
ATOM     15  C   UNL     1      -3.835  -3.642   0.000  0.00  0.00    +0.006 C 
ATOM     16  C   UNL     1      -5.134  -2.892   0.000  0.00  0.00    +0.077 C 
ENDBRANCH  10  11
ENDBRANCH   8   9
BRANCH  20  21
ATOM     21  N   UNL     1     -12.564   0.282   0.000  0.00  0.00    +0.100 N 
ATOM     22  O   UNL     1     -11.683   1.495   0.000  0.00  0.00    +0.043 OA
ATOM     23  O   UNL     1     -14.056   0.438   0.000  0.00  0.00    -0.575 OA
ENDBRANCH  20  21
BRANCH   1   2
ATOM      2  C   UNL     1      -9.372  -0.397   0.000  0.00  0.00    +0.171 C 
BRANCH   2   3
ATOM      3  C   UNL     1      -9.684   1.070   0.000  0.00  0.00    +0.254 C 
BRANCH   3   4
ATOM      4  O   UNL     1      -8.569   2.074   0.000  0.00  0.00    -0.463 OA
BRANCH   4   5
ATOM      5  C   UNL     1      -7.143   1.611   0.000  0.00  0.00    +0.304 C 
ATOM      6  C   UNL     1      -6.831   0.143   0.000  0.00  0.00    +0.136 C 
ATOM      7  O   UNL     1      -6.028   2.614   0.000  0.00  0.00    -0.251 OA
ENDBRANCH   4   5
ENDBRANCH   3   4
ENDBRANCH   2   3
ENDBRANCH   1   2
TORSDOF 7