REMARK  Name = 17507
REMARK  11 active torsions:
REMARK  status: ('A' for Active; 'I' for Inactive)
REMARK    1  A    between atoms: N_1  and  C_12
REMARK    2  A    between atoms: C_2  and  C_14
REMARK    3  A    between atoms: C_3  and  C_13
REMARK    4  A    between atoms: C_4  and  C_10
REMARK    5  A    between atoms: C_5  and  C_6
REMARK    6  A    between atoms: C_7  and  C_8
REMARK    7  A    between atoms: C_7  and  O_9
REMARK    8  A    between atoms: O_9  and  C_10
REMARK    9  A    between atoms: C_14  and  O_16
REMARK   10  A    between atoms: O_16  and  C_17
REMARK   11  A    between atoms: C_17  and  C_18
REMARK                            x       y       z     vdW  Elec       q    Type
REMARK                         _______ _______ _______ _____ _____    ______ ____
ROOT
ATOM      1  N   UNL     1      -5.159  -3.965   0.000  0.00  0.00    -0.341 N 
ATOM      2  C   UNL     1      -5.159  -2.465   0.000  0.00  0.00    +0.149 C 
ATOM      3  C   UNL     1      -6.372  -4.846   0.000  0.00  0.00    +0.030 A 
ATOM      4  C   UNL     1      -7.799  -4.383   0.000  0.00  0.00    +0.064 C 
ATOM      5  C   UNL     1      -5.909  -6.273   0.000  0.00  0.00    +0.083 A 
ATOM     11  C   UNL     1      -4.409  -6.273   0.000  0.00  0.00    -0.004 A 
ATOM     12  C   UNL     1      -3.527  -7.487   0.000  0.00  0.00    +0.047 C 
ATOM     13  C   UNL     1      -3.945  -4.846   0.000  0.00  0.00    +0.131 A 
ENDROOT
BRANCH   5   6
ATOM      6  C   UNL     1      -6.791  -7.487   0.000  0.00  0.00    +0.341 C 
ATOM      7  O   UNL     1      -6.181  -8.857   0.000  0.00  0.00    -0.245 OA
BRANCH   6   8
ATOM      8  O   UNL     1      -8.282  -7.330   0.000  0.00  0.00    -0.461 OA
BRANCH   8   9
ATOM      9  C   UNL     1      -9.164  -8.543   0.000  0.00  0.00    +0.229 C 
ATOM     10  C   UNL     1     -10.656  -8.387   0.000  0.00  0.00    +0.048 C 
ENDBRANCH   8   9
ENDBRANCH   6   8
ENDBRANCH   5   6
BRANCH  13  14
ATOM     14  C   UNL     1      -2.519  -4.383   0.000  0.00  0.00    +0.356 C 
ATOM     18  O   UNL     1      -1.404  -5.387   0.000  0.00  0.00    -0.243 OA
BRANCH  14  15
ATOM     15  O   UNL     1      -2.207  -2.916   0.000  0.00  0.00    -0.460 OA
BRANCH  15  16
ATOM     16  C   UNL     1      -0.780  -2.452   0.000  0.00  0.00    +0.229 C 
ATOM     17  C   UNL     1       0.334  -3.456   0.000  0.00  0.00    +0.048 C 
ENDBRANCH  15  16
ENDBRANCH  14  15
ENDBRANCH  13  14
TORSDOF 6