REMARK  Name = 176324
REMARK  5 active torsions:
REMARK  status: ('A' for Active; 'I' for Inactive)
REMARK    1  A    between atoms: CA_5  and  C_8
REMARK    2  A    between atoms: CA_5  and  N_10
REMARK    3  A    between atoms: CA_5  and  C_11
REMARK    4  A    between atoms: C_7  and  O_9
REMARK    5  A    between atoms: C_11  and  OXT_13
REMARK                            x       y       z     vdW  Elec       q    Type
REMARK                         _______ _______ _______ _____ _____    ______ ____
ROOT
ATOM      1 CL   UNL     1       1.913   3.460   0.000  0.00  0.00    -0.061 Cl
ATOM      2  C   UNL     1       2.795   2.246   0.000  0.00  0.00    +0.177 C 
ATOM      3  C   UNL     1       4.295   2.246   0.000  0.00  0.00    +0.223 C 
ATOM      6  C   UNL     1       4.758   0.820   0.000  0.00  0.00    +0.267 C 
ATOM     15  O   UNL     1       3.545  -0.062   0.000  0.00  0.00    -0.384 OA
ATOM     16  N   UNL     1       2.331   0.820   0.000  0.00  0.00    -0.074 NA
ENDROOT
BRANCH   3   4
ATOM      4  O   UNL     1       5.176   3.460   0.000  0.00  0.00    -0.381 OA
ATOM      5  H   UNL     1       6.141   3.359   0.000  0.00  0.00    +0.210 HD
ENDBRANCH   3   4
BRANCH   6   7
ATOM      7  CA  UNL     1       6.185   0.356   0.000  0.00  0.00    +0.207 C 
BRANCH   7  12
ATOM     12  N   UNL     1       7.188  -0.758   0.000  0.00  0.00    -0.315 NA
ATOM     13  H1  UNL     1       8.186  -0.546   0.000  0.00  0.00    +0.119 HD
ATOM     14  H2  UNL     1       6.873  -1.728   0.000  0.00  0.00    +0.119 HD
ENDBRANCH   7  12
BRANCH   7   8
ATOM      8  C   UNL     1       7.299   1.360   0.000  0.00  0.00    +0.326 C 
ATOM     11  O   UNL     1       8.726   0.896   0.000  0.00  0.00    -0.249 OA
BRANCH   8   9
ATOM      9  OXT UNL     1       6.987   2.827   0.000  0.00  0.00    -0.479 OA
ATOM     10  HXT UNL     1       7.684   3.454   0.000  0.00  0.00    +0.295 HD
ENDBRANCH   8   9
ENDBRANCH   7   8
ENDBRANCH   6   7
TORSDOF 5