REMARK  Name = 187675
REMARK  5 active torsions:
REMARK  status: ('A' for Active; 'I' for Inactive)
REMARK    1  A    between atoms: AS_1  and  C_6
REMARK    2  A    between atoms: AS_1  and  O_15
REMARK    3  A    between atoms: AS_1  and  O_16
REMARK    4  A    between atoms: C_4  and  C_10
REMARK    5  A    between atoms: C_5  and  N_17
REMARK                            x       y       z     vdW  Elec       q    Type
REMARK                         _______ _______ _______ _____ _____    ______ ____
ROOT
ATOM      7  C   UNL     1      -3.522  -5.899   0.000  0.00  0.00    +0.000 A 
ATOM      8  C   UNL     1      -4.821  -6.649   0.000  0.00  0.00    +0.000 A 
ATOM      9  C   UNL     1      -6.120  -5.899   0.000  0.00  0.00    +0.000 A 
ATOM     13  C   UNL     1      -6.120  -4.399   0.000  0.00  0.00    +0.000 A 
ATOM     14  C   UNL     1      -4.821  -3.650   0.000  0.00  0.00    +0.000 A 
ATOM     15  C   UNL     1      -3.522  -4.399   0.000  0.00  0.00    +0.000 A 
ENDROOT
BRANCH  15  16
ATOM     16  C   UNL     1      -2.223  -3.650   0.000  0.00  0.00    +0.000 A 
ATOM     17  C   UNL     1      -0.924  -4.399   0.000  0.00  0.00    +0.000 A 
ATOM     18  C   UNL     1       0.375  -3.650   0.000  0.00  0.00    +0.000 A 
ATOM     19  C   UNL     1       0.375  -2.150   0.000  0.00  0.00    +0.000 A 
ATOM     20  C   UNL     1      -0.924  -1.400   0.000  0.00  0.00    +0.000 A 
ATOM     21  C   UNL     1      -2.223  -2.150   0.000  0.00  0.00    +0.000 A 
ENDBRANCH  15  16
BRANCH   9  10
ATOM     10  N   UNL     1      -7.419  -6.649   0.000  0.00  0.00    +1.000 N 
ATOM     11  O   UNL     1      -7.419  -8.149   0.000  0.00  0.00    +0.000 OA
ATOM     12  O   UNL     1      -8.718  -5.899   0.000  0.00  0.00    -1.000 OA
ENDBRANCH   9  10
BRANCH   7   1
ATOM      1 AS   UNL     1      -1.379  -7.137   0.000  0.00  0.00    +0.000 As
ATOM      6  O   UNL     1      -1.767  -8.586   0.000  0.00  0.00    +0.000 OA
BRANCH   1   2
ATOM      2  O   UNL     1       0.070  -6.749   0.000  0.00  0.00    +0.000 OA
ATOM      3  H   UNL     1       0.756  -7.435   0.000  0.00  0.00    +0.000 HD
ENDBRANCH   1   2
BRANCH   1   4
ATOM      4  O   UNL     1      -2.129  -5.838   0.000  0.00  0.00    +0.000 OA
ATOM      5  H   UNL     1      -1.644  -4.998   0.000  0.00  0.00    +0.000 HD
ENDBRANCH   1   4
ENDBRANCH   7   1
TORSDOF 5