REMARK  Name = NSC 93047
REMARK  5 active torsions:
REMARK  status: ('A' for Active; 'I' for Inactive)
REMARK    1  A    between atoms: C_4  and  C_5
REMARK    2  A    between atoms: C_6  and  O_7
REMARK    3  A    between atoms: C_8  and  O_9
REMARK    4  A    between atoms: C_10  and  C_11
REMARK    5  A    between atoms: C_11  and  O_12
REMARK                            x       y       z     vdW  Elec       q    Type
REMARK                         _______ _______ _______ _____ _____    ______ ____
ROOT
ATOM      5  C   UNL     1      -0.345  -0.344   0.000  0.00  0.00    +0.185 C 
ATOM      6  C   UNL     1       0.618  -1.495   0.000  0.00  0.00    +0.179 C 
ATOM      9  C   UNL     1      -0.179  -2.766   0.000  0.00  0.00    +0.177 C 
ATOM     12  C   UNL     1      -1.634  -2.401   0.000  0.00  0.00    +0.175 C 
ATOM     16  O   UNL     1      -1.736  -0.904   0.000  0.00  0.00    -0.361 OA
ENDROOT
BRANCH   5   4
ATOM      1  O   UNL     1      -0.705   4.923   0.000  0.00  0.00    -0.270 OA
ATOM      2  C   UNL     1      -0.145   3.532   0.000  0.00  0.00    +0.244 C 
ATOM      3  C   UNL     1      -0.942   2.261   0.000  0.00  0.00    +0.079 C 
ATOM      4  C   UNL     1       0.021   1.110   0.000  0.00  0.00    +0.051 C 
ATOM     17  C   UNL     1       1.412   1.670   0.000  0.00  0.00    +0.249 C 
ATOM     18  O   UNL     1       2.683   0.873   0.000  0.00  0.00    -0.270 OA
ATOM     19  N   UNL     1       1.310   3.167   0.000  0.00  0.00    -0.249 N 
ATOM     20  H   UNL     1       2.461   4.129   0.000  0.00  0.00    +0.158 HD
ENDBRANCH   5   4
BRANCH   6   7
ATOM      7  O   UNL     1       2.114  -1.393   0.000  0.00  0.00    -0.386 OA
ATOM      8  H   UNL     1       2.655  -2.198   0.000  0.00  0.00    +0.210 HD
ENDBRANCH   6   7
BRANCH   9  10
ATOM     10  O   UNL     1       0.380  -4.158   0.000  0.00  0.00    -0.386 OA
ATOM     11  H   UNL     1      -0.218  -4.921   0.000  0.00  0.00    +0.210 HD
ENDBRANCH   9  10
BRANCH  12  13
ATOM     13  C   UNL     1      -2.785  -3.363   0.000  0.00  0.00    +0.190 C 
BRANCH  13  14
ATOM     14  O   UNL     1      -2.527  -4.841   0.000  0.00  0.00    -0.392 OA
ATOM     15  H   UNL     1      -3.271  -5.463   0.000  0.00  0.00    +0.210 HD
ENDBRANCH  13  14
ENDBRANCH  12  13
TORSDOF 5