REMARK  Name = NSC 9170
REMARK  9 active torsions:
REMARK  status: ('A' for Active; 'I' for Inactive)
REMARK    1  A    between atoms: C_5  and  N_6
REMARK    2  A    between atoms: C_11  and  O_12
REMARK    3  A    between atoms: O_12  and  C_13
REMARK    4  A    between atoms: C_14  and  O_15
REMARK    5  A    between atoms: O_15  and  C_16
REMARK    6  A    between atoms: C_17  and  O_18
REMARK    7  A    between atoms: O_18  and  C_19
REMARK    8  A    between atoms: C_24  and  S_25
REMARK    9  A    between atoms: S_25  and  C_26
REMARK                            x       y       z     vdW  Elec       q    Type
REMARK                         _______ _______ _______ _____ _____    ______ ____
ROOT
ATOM      1  O   UNL     1     -11.042  -8.677   0.000  0.00  0.00    -0.287 OA
ATOM      2  C   UNL     1      -9.802  -7.832   0.000  0.00  0.00    +0.193 A 
ATOM      3  C   UNL     1      -8.503  -8.582   0.000  0.00  0.00    +0.057 A 
ATOM      4  C   UNL     1      -7.107  -8.034   0.000  0.00  0.00    -0.019 A 
ATOM      5  C   UNL     1      -6.262  -9.273   0.000  0.00  0.00    +0.082 C 
ATOM      9  C   UNL     1      -4.766  -9.385   0.000  0.00  0.00    +0.028 C 
ATOM     10  C   UNL     1      -3.746  -8.286   0.000  0.00  0.00    +0.038 C 
ATOM     11  C   UNL     1      -3.969  -6.803   0.000  0.00  0.00    -0.032 A 
ATOM     12  C   UNL     1      -5.268  -6.053   0.000  0.00  0.00    +0.031 A 
ATOM     13  C   UNL     1      -5.268  -4.553   0.000  0.00  0.00    +0.173 A 
ATOM     16  C   UNL     1      -3.969  -3.803   0.000  0.00  0.00    +0.204 A 
ATOM     19  C   UNL     1      -2.670  -4.553   0.000  0.00  0.00    +0.165 A 
ATOM     22  C   UNL     1      -2.670  -6.053   0.000  0.00  0.00    +0.054 A 
ATOM     23  C   UNL     1      -6.665  -6.601   0.000  0.00  0.00    -0.009 A 
ATOM     24  C   UNL     1      -7.510  -5.361   0.000  0.00  0.00    +0.010 A 
ATOM     25  C   UNL     1      -9.005  -5.249   0.000  0.00  0.00    +0.019 A 
ATOM     26  C   UNL     1     -10.026  -6.349   0.000  0.00  0.00    +0.054 A 
ENDROOT
BRANCH   5   6
ATOM      6  N   UNL     1      -7.012 -10.572   0.000  0.00  0.00    -0.324 NA
ATOM      7  H   UNL     1      -6.502 -11.456   0.000  0.00  0.00    +0.119 HD
ATOM      8  H   UNL     1      -8.032 -10.572   0.000  0.00  0.00    +0.119 HD
ENDBRANCH   5   6
BRANCH  13  14
ATOM     14  O   UNL     1      -6.567  -3.803   0.000  0.00  0.00    -0.491 OA
ATOM     15  C   UNL     1      -7.867  -4.553   0.000  0.00  0.00    +0.277 C 
ENDBRANCH  13  14
BRANCH  16  17
ATOM     17  O   UNL     1      -3.969  -2.303   0.000  0.00  0.00    -0.488 OA
ATOM     18  C   UNL     1      -5.268  -1.553   0.000  0.00  0.00    +0.277 C 
ENDBRANCH  16  17
BRANCH  19  20
ATOM     20  O   UNL     1      -1.371  -3.803   0.000  0.00  0.00    -0.491 OA
ATOM     21  C   UNL     1      -0.072  -4.553   0.000  0.00  0.00    +0.277 C 
ENDBRANCH  19  20
BRANCH  26  27
ATOM     27  S   UNL     1     -11.459  -5.907   0.000  0.00  0.00    -0.125 S 
ATOM     28  C   UNL     1     -11.793  -4.444   0.000  0.00  0.00    +0.090 C 
ENDBRANCH  26  27
TORSDOF 5