REMARK  Name = NSC 9665
REMARK  9 active torsions:
REMARK  status: ('A' for Active; 'I' for Inactive)
REMARK    1  A    between atoms: C_5  and  O_6
REMARK    2  A    between atoms: C_7  and  O_8
REMARK    3  A    between atoms: O_8  and  C_9
REMARK    4  A    between atoms: C_10  and  C_11
REMARK    5  A    between atoms: C_11  and  C_12
REMARK    6  A    between atoms: C_13  and  C_14
REMARK    7  A    between atoms: C_14  and  C_15
REMARK    8  A    between atoms: C_16  and  C_17
REMARK    9  A    between atoms: C_16  and  C_18
REMARK                            x       y       z     vdW  Elec       q    Type
REMARK                         _______ _______ _______ _____ _____    ______ ____
ROOT
ATOM      1  O   UNL     1       1.025   6.824   0.000  0.00  0.00    -0.368 OA
ATOM      2  C   UNL     1       0.275   5.524   0.000  0.00  0.00    +0.101 C 
ATOM      3  C   UNL     1      -1.025   4.774   0.000  0.00  0.00    +0.040 C 
ATOM      4  C   UNL     1      -1.025   3.275   0.000  0.00  0.00    +0.037 C 
ATOM      5  C   UNL     1       0.275   2.525   0.000  0.00  0.00    +0.144 C 
ATOM      8  C   UNL     1       1.573   3.275   0.000  0.00  0.00    +0.155 C 
ATOM     11  C   UNL     1       1.573   4.774   0.000  0.00  0.00    +0.089 C 
ATOM     21  C   UNL     1      -0.475   6.824   0.000  0.00  0.00    +0.196 C 
ENDROOT
BRANCH  11  12
ATOM     12  C   UNL     1       2.420   7.100   0.000  0.00  0.00    +0.101 C 
ATOM     13  C   UNL     1       1.121   7.850   0.000  0.00  0.00    +0.045 C 
ATOM     14  C   UNL     1       3.897   6.840   0.000  0.00  0.00    +0.155 C 
ATOM     20  O   UNL     1       3.384   8.249   0.000  0.00  0.00    -0.364 OA
BRANCH  14  15
ATOM     15  C   UNL     1       5.375   7.100   0.000  0.00  0.00    +0.061 C 
BRANCH  15  16
ATOM     16  C   UNL     1       5.888   8.510   0.000  0.00  0.00    -0.026 C 
ATOM     17  C   UNL     1       7.365   8.770   0.000  0.00  0.00    -0.080 C 
ATOM     18  C   UNL     1       8.329   7.621   0.000  0.00  0.00    +0.038 C 
ATOM     19  C   UNL     1       7.878  10.180   0.000  0.00  0.00    +0.038 C 
ENDBRANCH  15  16
ENDBRANCH  14  15
ENDBRANCH  11  12
BRANCH   5   6
ATOM      6  O   UNL     1       0.275   1.025   0.000  0.00  0.00    -0.389 OA
ATOM      7  H   UNL     1      -0.566   0.539   0.000  0.00  0.00    +0.210 HD
ENDBRANCH   5   6
BRANCH   8   9
ATOM      9  O   UNL     1       2.873   2.525   0.000  0.00  0.00    -0.377 OA
ATOM     10  C   UNL     1       4.172   3.275   0.000  0.00  0.00    +0.194 C 
ENDBRANCH   8   9
TORSDOF 5