REMARK  Name = NSC 9248
REMARK  6 active torsions:
REMARK  status: ('A' for Active; 'I' for Inactive)
REMARK    1  A    between atoms: C_2  and  O_3
REMARK    2  A    between atoms: C_4  and  O_5
REMARK    3  A    between atoms: C_6  and  O_7
REMARK    4  A    between atoms: C_8  and  O_9
REMARK    5  A    between atoms: C_10  and  C_11
REMARK    6  A    between atoms: C_11  and  O_12
REMARK                            x       y       z     vdW  Elec       q    Type
REMARK                         _______ _______ _______ _____ _____    ______ ____
ROOT
ATOM      1  O   UNL     1      -4.024   2.873   0.000  0.00  0.00    -0.332 OA
ATOM      2  C   UNL     1      -3.275   1.574   0.000  0.00  0.00    +0.280 C 
ATOM      5  C   UNL     1      -4.024   0.275   0.000  0.00  0.00    +0.201 C 
ATOM      8  C   UNL     1      -5.524   0.275   0.000  0.00  0.00    +0.179 C 
ATOM     11  C   UNL     1      -6.274   1.574   0.000  0.00  0.00    +0.185 C 
ATOM     14  C   UNL     1      -5.524   2.873   0.000  0.00  0.00    +0.260 C 
ENDROOT
BRANCH   2   3
ATOM      3  O   UNL     1      -1.775   1.574   0.000  0.00  0.00    -0.365 OA
ATOM      4  H   UNL     1      -1.289   0.734   0.000  0.00  0.00    +0.213 HD
ENDBRANCH   2   3
BRANCH   5   6
ATOM      6  O   UNL     1      -3.275  -1.025   0.000  0.00  0.00    -0.384 OA
ATOM      7  H   UNL     1      -3.759  -1.865   0.000  0.00  0.00    +0.210 HD
ENDBRANCH   5   6
BRANCH   8   9
ATOM      9  O   UNL     1      -4.774   1.574   0.000  0.00  0.00    -0.386 OA
ATOM     10  H   UNL     1      -3.805   1.574   0.000  0.00  0.00    +0.210 HD
ENDBRANCH   8   9
BRANCH  11  12
ATOM     12  O   UNL     1      -7.774   1.574   0.000  0.00  0.00    -0.386 OA
ATOM     13  H   UNL     1      -8.259   2.414   0.000  0.00  0.00    +0.210 HD
ENDBRANCH  11  12
BRANCH  14  15
ATOM     15  C   UNL     1      -6.274   4.172   0.000  0.00  0.00    +0.337 C 
ATOM     18  O   UNL     1      -7.774   4.172   0.000  0.00  0.00    -0.248 OA
BRANCH  15  16
ATOM     16  O   UNL     1      -5.524   5.471   0.000  0.00  0.00    -0.479 OA
ATOM     17  H   UNL     1      -4.588   5.471   0.000  0.00  0.00    +0.295 HD
ENDBRANCH  15  16
ENDBRANCH  14  15
TORSDOF 6