REMARK  Name = NSC 95099
REMARK  18 active torsions:
REMARK  status: ('A' for Active; 'I' for Inactive)
REMARK    1  A    between atoms: C_3  and  C_4
REMARK    2  A    between atoms: C_5  and  C_6
REMARK    3  A    between atoms: C_7  and  O_8
REMARK    4  A    between atoms: C_15  and  O_18
REMARK    5  A    between atoms: O_18  and  C_19
REMARK    6  A    between atoms: C_21  and  O_22
REMARK    7  A    between atoms: C_23  and  O_26
REMARK    8  A    between atoms: C_24  and  C_25
REMARK    9  A    between atoms: O_26  and  C_27
REMARK   10  A    between atoms: C_29  and  O_30
REMARK   11  A    between atoms: C_31  and  O_34
REMARK   12  A    between atoms: C_32  and  C_33
REMARK   13  A    between atoms: O_34  and  C_35
REMARK   14  A    between atoms: C_37  and  O_38
REMARK   15  A    between atoms: C_39  and  O_40
REMARK   16  A    between atoms: C_41  and  C_42
REMARK   17  A    between atoms: C_46  and  C_47
REMARK   18  A    between atoms: C_51  and  O_52
REMARK                            x       y       z     vdW  Elec       q    Type
REMARK                         _______ _______ _______ _____ _____    ______ ____
ROOT
ATOM     20  C   UNL     1      -7.245 -13.500   0.000  0.00  0.00    +0.253 C 
ATOM     21  C   UNL     1      -5.946 -14.250   0.000  0.00  0.00    +0.095 C 
ATOM     22  C   UNL     1      -4.647 -13.500   0.000  0.00  0.00    +0.151 C 
ATOM     25  C   UNL     1      -4.647 -12.000   0.000  0.00  0.00    +0.178 C 
ATOM     26  C   UNL     1      -5.946 -11.250   0.000  0.00  0.00    +0.150 C 
ATOM     27  C   UNL     1      -5.946  -9.750   0.000  0.00  0.00    +0.041 C 
ATOM     50  O   UNL     1      -7.245 -12.000   0.000  0.00  0.00    -0.346 OA
ENDROOT
BRANCH  22  23
ATOM     23  O   UNL     1      -3.348 -14.250   0.000  0.00  0.00    -0.389 OA
ATOM     24  H   UNL     1      -3.348 -15.220   0.000  0.00  0.00    +0.210 HD
ENDBRANCH  22  23
BRANCH  20  19
ATOM     19  O   UNL     1      -8.544 -14.250   0.000  0.00  0.00    -0.348 OA
BRANCH  19  16
ATOM      4  C   UNL     1     -17.765  -9.287   0.000  0.00  0.00    +0.056 C 
ATOM      5  C   UNL     1     -16.338  -9.750   0.000  0.00  0.00    +0.006 C 
ATOM      6  C   UNL     1     -16.495  -8.258   0.000  0.00  0.00    +0.015 C 
ATOM      7  C   UNL     1     -16.338 -11.250   0.000  0.00  0.00    +0.077 C 
ATOM     10  C   UNL     1     -17.765 -11.714   0.000  0.00  0.00    +0.067 C 
ATOM     11  C   UNL     1     -15.039 -12.000   0.000  0.00  0.00    +0.025 C 
ATOM     12  C   UNL     1     -15.039 -13.500   0.000  0.00  0.00    +0.007 C 
ATOM     13  C   UNL     1     -13.740 -14.250   0.000  0.00  0.00    +0.004 C 
ATOM     14  C   UNL     1     -12.441 -13.500   0.000  0.00  0.00    -0.002 C 
ATOM     15  C   UNL     1     -11.142 -14.250   0.000  0.00  0.00    +0.035 C 
ATOM     16  C   UNL     1      -9.843 -13.500   0.000  0.00  0.00    +0.122 C 
ATOM     17  C   UNL     1      -9.843 -12.000   0.000  0.00  0.00    +0.032 C 
ATOM     18  C   UNL     1     -11.142 -11.250   0.000  0.00  0.00    +0.010 C 
ATOM     51  C   UNL     1     -12.441 -12.000   0.000  0.00  0.00    -0.026 C 
ATOM     52  C   UNL     1     -12.441 -10.500   0.000  0.00  0.00    +0.012 C 
ATOM     53  C   UNL     1     -13.740 -11.250   0.000  0.00  0.00    +0.001 C 
ATOM     54  C   UNL     1     -13.740  -9.750   0.000  0.00  0.00    +0.005 C 
ATOM     55  C   UNL     1     -15.039  -9.000   0.000  0.00  0.00    +0.010 C 
ATOM     56  C   UNL     1     -18.647 -10.500   0.000  0.00  0.00    +0.125 C 
BRANCH   4   3
ATOM      1  O   UNL     1     -19.655  -5.896   0.000  0.00  0.00    -0.457 OA
ATOM      2  C   UNL     1     -19.655  -7.396   0.000  0.00  0.00    +0.264 C 
ATOM      3  C   UNL     1     -18.229  -7.860   0.000  0.00  0.00    -0.020 C 
ATOM     59  C   UNL     1     -17.347  -6.646   0.000  0.00  0.00    +0.094 C 
ATOM     60  C   UNL     1     -18.229  -5.433   0.000  0.00  0.00    +0.332 C 
ATOM     61  O   UNL     1     -17.765  -4.006   0.000  0.00  0.00    -0.246 OA
ENDBRANCH   4   3
BRANCH   7   8
ATOM      8  O   UNL     1     -16.495 -12.742   0.000  0.00  0.00    -0.388 OA
ATOM      9  H   UNL     1     -17.381 -13.136   0.000  0.00  0.00    +0.210 HD
ENDBRANCH   7   8
BRANCH  56  57
ATOM     57  O   UNL     1     -20.147 -10.500   0.000  0.00  0.00    -0.391 OA
ATOM     58  H   UNL     1     -20.632  -9.660   0.000  0.00  0.00    +0.210 HD
ENDBRANCH  56  57
ENDBRANCH  19  16
ENDBRANCH  20  19
BRANCH  25  28
ATOM     28  O   UNL     1      -3.348 -11.250   0.000  0.00  0.00    -0.343 OA
BRANCH  28  29
ATOM     29  C   UNL     1      -3.348  -9.750   0.000  0.00  0.00    +0.254 C 
ATOM     30  C   UNL     1      -2.049  -9.000   0.000  0.00  0.00    +0.095 C 
ATOM     31  C   UNL     1      -2.049  -7.500   0.000  0.00  0.00    +0.151 C 
ATOM     34  C   UNL     1      -3.348  -6.750   0.000  0.00  0.00    +0.178 C 
ATOM     35  C   UNL     1      -4.647  -7.500   0.000  0.00  0.00    +0.150 C 
ATOM     36  C   UNL     1      -5.946  -6.750   0.000  0.00  0.00    +0.041 C 
ATOM     49  O   UNL     1      -4.647  -9.000   0.000  0.00  0.00    -0.346 OA
BRANCH  31  32
ATOM     32  O   UNL     1      -0.750  -6.750   0.000  0.00  0.00    -0.389 OA
ATOM     33  H   UNL     1       0.090  -7.235   0.000  0.00  0.00    +0.210 HD
ENDBRANCH  31  32
BRANCH  34  37
ATOM     37  O   UNL     1      -3.348  -5.250   0.000  0.00  0.00    -0.343 OA
BRANCH  37  38
ATOM     38  C   UNL     1      -4.647  -4.500   0.000  0.00  0.00    +0.254 C 
ATOM     39  C   UNL     1      -4.647  -3.000   0.000  0.00  0.00    +0.095 C 
ATOM     40  C   UNL     1      -5.946  -2.250   0.000  0.00  0.00    +0.150 C 
ATOM     43  C   UNL     1      -7.245  -3.000   0.000  0.00  0.00    +0.172 C 
ATOM     46  C   UNL     1      -7.245  -4.500   0.000  0.00  0.00    +0.149 C 
ATOM     47  C   UNL     1      -8.544  -5.250   0.000  0.00  0.00    +0.041 C 
ATOM     48  O   UNL     1      -5.946  -5.250   0.000  0.00  0.00    -0.346 OA
BRANCH  40  41
ATOM     41  O   UNL     1      -5.946  -0.750   0.000  0.00  0.00    -0.389 OA
ATOM     42  H   UNL     1      -5.106  -0.265   0.000  0.00  0.00    +0.210 HD
ENDBRANCH  40  41
BRANCH  43  44
ATOM     44  O   UNL     1      -8.544  -2.250   0.000  0.00  0.00    -0.387 OA
ATOM     45  H   UNL     1      -8.544  -1.280   0.000  0.00  0.00    +0.210 HD
ENDBRANCH  43  44
ENDBRANCH  37  38
ENDBRANCH  34  37
ENDBRANCH  28  29
ENDBRANCH  25  28
TORSDOF 13