REMARK  Name = NSC 98542
REMARK  12 active torsions:
REMARK  status: ('A' for Active; 'I' for Inactive)
REMARK    1  A    between atoms: C_6  and  O_7
REMARK    2  A    between atoms: O_7  and  C_8
REMARK    3  A    between atoms: C_9  and  O_10
REMARK    4  A    between atoms: O_10  and  C_11
REMARK    5  A    between atoms: C_14  and  C_15
REMARK    6  A    between atoms: C_15  and  C_16
REMARK    7  A    between atoms: C_18  and  O_19
REMARK    8  A    between atoms: O_19  and  C_20
REMARK    9  A    between atoms: C_21  and  O_22
REMARK   10  A    between atoms: O_22  and  C_23
REMARK   11  A    between atoms: C_25  and  C_26
REMARK   12  A    between atoms: C_26  and  C_27
REMARK                            x       y       z     vdW  Elec       q    Type
REMARK                         _______ _______ _______ _____ _____    ______ ____
ROOT
ATOM      1  N   UNL     1      -4.159  -9.182   0.000  0.00  0.00    -0.259 NA
ATOM      2  C   UNL     1      -4.159 -10.682   0.000  0.00  0.00    +0.111 A 
ATOM      3  C   UNL     1      -5.458 -11.432   0.000  0.00  0.00    +0.028 A 
ATOM      4  C   UNL     1      -6.757 -10.682   0.000  0.00  0.00    -0.011 A 
ATOM      5  C   UNL     1      -8.056 -11.432   0.000  0.00  0.00    +0.058 A 
ATOM      6  C   UNL     1      -9.355 -10.682   0.000  0.00  0.00    +0.162 A 
ATOM      9  C   UNL     1      -9.355  -9.182   0.000  0.00  0.00    +0.162 A 
ATOM     12  C   UNL     1      -8.056  -8.432   0.000  0.00  0.00    +0.059 A 
ATOM     13  C   UNL     1      -6.757  -9.182   0.000  0.00  0.00    +0.007 A 
ATOM     14  C   UNL     1      -5.458  -8.432   0.000  0.00  0.00    +0.053 A 
ENDROOT
BRANCH   6   7
ATOM      7  O   UNL     1     -10.654 -11.432   0.000  0.00  0.00    -0.491 OA
ATOM      8  C   UNL     1     -11.954 -10.682   0.000  0.00  0.00    +0.277 C 
ENDBRANCH   6   7
BRANCH   9  10
ATOM     10  O   UNL     1     -10.654  -8.432   0.000  0.00  0.00    -0.491 OA
ATOM     11  C   UNL     1     -11.954  -9.182   0.000  0.00  0.00    +0.277 C 
ENDBRANCH   9  10
BRANCH  14  15
ATOM     15  C   UNL     1      -5.458  -6.932   0.000  0.00  0.00    +0.092 C 
BRANCH  15  16
ATOM     16  C   UNL     1      -4.049  -6.419   0.000  0.00  0.00    -0.027 A 
ATOM     17  C   UNL     1      -2.900  -7.383   0.000  0.00  0.00    +0.054 A 
ATOM     18  C   UNL     1      -1.490  -6.870   0.000  0.00  0.00    +0.162 A 
ATOM     21  C   UNL     1      -1.230  -5.393   0.000  0.00  0.00    +0.162 A 
ATOM     24  C   UNL     1      -2.379  -4.429   0.000  0.00  0.00    +0.061 A 
ATOM     25  C   UNL     1      -3.788  -4.942   0.000  0.00  0.00    +0.024 A 
BRANCH  25  26
ATOM     26  C   UNL     1      -4.937  -3.978   0.000  0.00  0.00    +0.161 C 
ATOM     27  C   UNL     1      -6.347  -4.491   0.000  0.00  0.00    +0.091 C 
ATOM     28  O   UNL     1      -4.677  -2.500   0.000  0.00  0.00    -0.292 OA
ENDBRANCH  25  26
BRANCH  18  19
ATOM     19  O   UNL     1      -0.341  -7.834   0.000  0.00  0.00    -0.491 OA
ATOM     20  C   UNL     1      -0.602  -9.312   0.000  0.00  0.00    +0.277 C 
ENDBRANCH  18  19
BRANCH  21  22
ATOM     22  O   UNL     1       0.180  -4.880   0.000  0.00  0.00    -0.491 OA
ATOM     23  C   UNL     1       1.329  -5.844   0.000  0.00  0.00    +0.277 C 
ENDBRANCH  21  22
ENDBRANCH  15  16
ENDBRANCH  14  15
TORSDOF 7