REMARK  Name = NSC 99799#1
REMARK  6 active torsions:
REMARK  status: ('A' for Active; 'I' for Inactive)
REMARK    1  A    between atoms: C_6  and  O_7
REMARK    2  A    between atoms: C_8  and  O_9
REMARK    3  A    between atoms: C_12  and  C_13
REMARK    4  A    between atoms: C_13  and  C_14
REMARK    5  A    between atoms: C_17  and  O_18
REMARK    6  A    between atoms: C_19  and  O_20
REMARK                            x       y       z     vdW  Elec       q    Type
REMARK                         _______ _______ _______ _____ _____    ______ ____
ROOT
ATOM      1  N   UNL     1      -3.522  -7.399   0.000  0.00  0.00    -0.259 NA
ATOM      2  C   UNL     1      -3.522  -8.899   0.000  0.00  0.00    +0.111 A 
ATOM      3  C   UNL     1      -4.821  -9.649   0.000  0.00  0.00    +0.028 A 
ATOM      4  C   UNL     1      -6.120  -8.899   0.000  0.00  0.00    -0.011 A 
ATOM      5  C   UNL     1      -7.419  -9.649   0.000  0.00  0.00    +0.057 A 
ATOM      6  C   UNL     1      -8.718  -8.899   0.000  0.00  0.00    +0.159 A 
ATOM      9  C   UNL     1      -8.718  -7.399   0.000  0.00  0.00    +0.159 A 
ATOM     12  C   UNL     1      -7.419  -6.649   0.000  0.00  0.00    +0.059 A 
ATOM     13  C   UNL     1      -6.120  -7.399   0.000  0.00  0.00    +0.007 A 
ATOM     14  C   UNL     1      -4.821  -6.649   0.000  0.00  0.00    +0.053 A 
ENDROOT
BRANCH   6   7
ATOM      7  O   UNL     1     -10.017  -9.649   0.000  0.00  0.00    -0.503 OA
ATOM      8  H   UNL     1     -10.829  -9.181   0.000  0.00  0.00    +0.292 HD
ENDBRANCH   6   7
BRANCH   9  10
ATOM     10  O   UNL     1     -10.017  -6.649   0.000  0.00  0.00    -0.503 OA
ATOM     11  H   UNL     1     -10.017  -5.713   0.000  0.00  0.00    +0.292 HD
ENDBRANCH   9  10
BRANCH  14  15
ATOM     15  C   UNL     1      -4.821  -5.149   0.000  0.00  0.00    +0.091 C 
BRANCH  15  16
ATOM     16  C   UNL     1      -3.522  -4.399   0.000  0.00  0.00    -0.038 A 
ATOM     17  C   UNL     1      -3.522  -2.900   0.000  0.00  0.00    +0.008 A 
ATOM     18  C   UNL     1      -2.223  -2.150   0.000  0.00  0.00    +0.049 A 
ATOM     19  C   UNL     1      -0.924  -2.900   0.000  0.00  0.00    +0.158 A 
ATOM     22  C   UNL     1      -0.924  -4.399   0.000  0.00  0.00    +0.158 A 
ATOM     25  C   UNL     1      -2.223  -5.149   0.000  0.00  0.00    +0.053 A 
BRANCH  19  20
ATOM     20  O   UNL     1       0.375  -2.150   0.000  0.00  0.00    -0.503 OA
ATOM     21  H   UNL     1       1.186  -2.618   0.000  0.00  0.00    +0.292 HD
ENDBRANCH  19  20
BRANCH  22  23
ATOM     23  O   UNL     1       0.375  -5.149   0.000  0.00  0.00    -0.503 OA
ATOM     24  H   UNL     1       0.375  -6.086   0.000  0.00  0.00    +0.292 HD
ENDBRANCH  22  23
ENDBRANCH  15  16
ENDBRANCH  14  15
TORSDOF 6