REMARK  Name = NSC 99804
REMARK  10 active torsions:
REMARK  status: ('A' for Active; 'I' for Inactive)
REMARK    1  A    between atoms: C_3  and  C_4
REMARK    2  A    between atoms: C_8  and  C_9
REMARK    3  A    between atoms: C_8  and  O_10
REMARK    4  A    between atoms: C_11  and  O_12
REMARK    5  A    between atoms: C_13  and  O_14
REMARK    6  A    between atoms: C_16  and  O_17
REMARK    7  A    between atoms: C_18  and  O_19
REMARK    8  A    between atoms: C_22  and  C_23
REMARK    9  A    between atoms: C_27  and  O_28
REMARK   10  A    between atoms: C_29  and  O_30
REMARK                            x       y       z     vdW  Elec       q    Type
REMARK                         _______ _______ _______ _____ _____    ______ ____
ROOT
ATOM      1  N   UNL     1      -9.618  -8.223   0.000  0.00  0.00    -0.296 NA
ATOM      2  C   UNL     1     -10.917  -7.473   0.000  0.00  0.00    +0.088 C 
ATOM      3  C   UNL     1     -12.216  -8.223   0.000  0.00  0.00    +0.000 C 
ATOM      4  C   UNL     1     -13.515  -7.473   0.000  0.00  0.00    +0.009 C 
ATOM      5  C   UNL     1     -12.216  -9.723   0.000  0.00  0.00    +0.006 C 
ATOM      6  C   UNL     1     -10.917 -10.473   0.000  0.00  0.00    +0.022 C 
ATOM      7  C   UNL     1      -9.618  -9.723   0.000  0.00  0.00    +0.091 C 
ATOM      8  C   UNL     1      -8.319 -10.473   0.000  0.00  0.00    +0.110 C 
ATOM      9  C   UNL     1      -7.569 -11.772   0.000  0.00  0.00    +0.046 C 
ATOM     12  C   UNL     1      -7.020  -9.723   0.000  0.00  0.00    +0.128 C 
ATOM     15  C   UNL     1      -5.721 -10.473   0.000  0.00  0.00    +0.152 C 
ATOM     18  C   UNL     1      -4.422  -9.723   0.000  0.00  0.00    +0.072 C 
ATOM     19  C   UNL     1      -4.422  -8.223   0.000  0.00  0.00    +0.103 C 
ATOM     22  C   UNL     1      -5.721  -7.473   0.000  0.00  0.00    +0.104 C 
ATOM     25  C   UNL     1      -5.409  -6.006   0.000  0.00  0.00    +0.074 C 
ATOM     26  C   UNL     1      -3.917  -5.849   0.000  0.00  0.00    +0.087 C 
ATOM     27  C   UNL     1      -3.035  -4.635   0.000  0.00  0.00    +0.005 C 
ATOM     28  C   UNL     1      -4.527  -4.479   0.000  0.00  0.00    +0.014 C 
ATOM     29  C   UNL     1      -1.544  -4.792   0.000  0.00  0.00    +0.060 C 
ATOM     30  C   UNL     1      -0.933  -6.162   0.000  0.00  0.00    +0.010 C 
ATOM     31  C   UNL     1      -1.815  -7.376   0.000  0.00  0.00    +0.010 C 
ATOM     32  C   UNL     1      -0.662  -3.579   0.000  0.00  0.00    +0.198 C 
ATOM     35  C   UNL     1      -1.272  -2.208   0.000  0.00  0.00    +0.174 C 
ATOM     38  C   UNL     1      -2.764  -2.051   0.000  0.00  0.00    +0.037 C 
ATOM     39  C   UNL     1      -3.646  -3.265   0.000  0.00  0.00    +0.012 C 
ATOM     40  O   UNL     1      -3.035  -7.062   0.000  0.00  0.00    -0.339 OA
ATOM     41  C   UNL     1      -3.307  -7.219   0.000  0.00  0.00    +0.056 C 
ATOM     42  C   UNL     1      -7.020  -8.223   0.000  0.00  0.00    +0.075 C 
ATOM     43  C   UNL     1      -8.319  -7.473   0.000  0.00  0.00    +0.094 C 
ENDROOT
BRANCH   8  10
ATOM     10  O   UNL     1      -9.283 -11.622   0.000  0.00  0.00    -0.384 OA
ATOM     11  H   UNL     1     -10.238 -11.454   0.000  0.00  0.00    +0.210 HD
ENDBRANCH   8  10
BRANCH  12  13
ATOM     13  O   UNL     1      -7.020 -11.223   0.000  0.00  0.00    -0.383 OA
ATOM     14  H   UNL     1      -7.860 -11.708   0.000  0.00  0.00    +0.210 HD
ENDBRANCH  12  13
BRANCH  15  16
ATOM     16  O   UNL     1      -5.721 -11.973   0.000  0.00  0.00    -0.389 OA
ATOM     17  H   UNL     1      -6.561 -12.458   0.000  0.00  0.00    +0.210 HD
ENDBRANCH  15  16
BRANCH  19  20
ATOM     20  O   UNL     1      -3.051  -8.833   0.000  0.00  0.00    -0.385 OA
ATOM     21  H   UNL     1      -2.950  -9.798   0.000  0.00  0.00    +0.210 HD
ENDBRANCH  19  20
BRANCH  22  23
ATOM     23  O   UNL     1      -6.934  -6.591   0.000  0.00  0.00    -0.385 OA
ATOM     24  H   UNL     1      -6.833  -5.627   0.000  0.00  0.00    +0.210 HD
ENDBRANCH  22  23
BRANCH  32  33
ATOM     33  O   UNL     1       0.832  -3.713   0.000  0.00  0.00    -0.362 OA
ATOM     34  H   UNL     1       1.240  -4.593   0.000  0.00  0.00    +0.213 HD
ENDBRANCH  32  33
BRANCH  35  36
ATOM     36  O   UNL     1      -0.390  -0.995   0.000  0.00  0.00    -0.386 OA
ATOM     37  H   UNL     1       0.574  -1.096   0.000  0.00  0.00    +0.210 HD
ENDBRANCH  35  36
TORSDOF 7