REMARK  Name = NSC 89937
REMARK  12 active torsions:
REMARK  status: ('A' for Active; 'I' for Inactive)
REMARK    1  A    between atoms: O_1  and  C_2
REMARK    2  A    between atoms: O_1  and  C_12
REMARK    3  A    between atoms: C_2  and  C_3
REMARK    4  A    between atoms: C_9  and  O_10
REMARK    5  A    between atoms: C_12  and  C_14
REMARK    6  A    between atoms: C_14  and  C_15
REMARK    7  A    between atoms: C_14  and  O_18
REMARK    8  A    between atoms: C_14  and  C_19
REMARK    9  A    between atoms: C_15  and  O_16
REMARK   10  A    between atoms: C_15  and  C_17
REMARK   11  A    between atoms: C_19  and  C_20
REMARK   12  A    between atoms: C_19  and  C_21
REMARK                            x       y       z     vdW  Elec       q    Type
REMARK                         _______ _______ _______ _____ _____    ______ ____
ROOT
ATOM      1  O   UNL     1       3.033   5.893   0.000  0.00  0.00    -0.458 OA
ENDROOT
BRANCH   1  13
ATOM     13  C   UNL     1       1.533   5.893   0.000  0.00  0.00    +0.342 C 
ATOM     14  O   UNL     1       0.783   7.192   0.000  0.00  0.00    -0.247 OA
BRANCH  13  15
ATOM     15  C   UNL     1       0.783   4.594   0.000  0.00  0.00    +0.190 C 
BRANCH  15  22
ATOM     22  C   UNL     1       1.533   3.295   0.000  0.00  0.00    +0.028 C 
ATOM     23  C   UNL     1       0.783   1.996   0.000  0.00  0.00    +0.011 C 
ATOM     24  C   UNL     1       3.033   3.295   0.000  0.00  0.00    +0.011 C 
ENDBRANCH  15  22
BRANCH  15  16
ATOM     16  C   UNL     1      -0.717   4.594   0.000  0.00  0.00    +0.154 C 
ATOM     19  C   UNL     1      -1.467   3.295   0.000  0.00  0.00    +0.041 C 
BRANCH  16  17
ATOM     17  O   UNL     1      -1.467   5.893   0.000  0.00  0.00    -0.389 OA
ATOM     18  H   UNL     1      -0.982   6.733   0.000  0.00  0.00    +0.210 HD
ENDBRANCH  16  17
ENDBRANCH  15  16
BRANCH  15  20
ATOM     20  O   UNL     1       2.283   4.594   0.000  0.00  0.00    -0.375 OA
ATOM     21  H   UNL     1       2.768   3.754   0.000  0.00  0.00    +0.211 HD
ENDBRANCH  15  20
ENDBRANCH  13  15
ENDBRANCH   1  13
BRANCH   1   2
ATOM      2  C   UNL     1       3.783   7.192   0.000  0.00  0.00    +0.264 C 
BRANCH   2   3
ATOM      3  C   UNL     1       5.283   7.192   0.000  0.00  0.00    -0.016 C 
ATOM      4  C   UNL     1       6.165   5.979   0.000  0.00  0.00    -0.007 C 
ATOM      5  C   UNL     1       7.591   6.442   0.000  0.00  0.00    +0.112 C 
ATOM      6  N   UNL     1       7.591   7.942   0.000  0.00  0.00    -0.290 NA
ATOM      7  C   UNL     1       8.473   9.156   0.000  0.00  0.00    +0.088 C 
ATOM      8  C   UNL     1       7.591  10.369   0.000  0.00  0.00    +0.048 C 
ATOM      9  C   UNL     1       6.165   9.906   0.000  0.00  0.00    +0.137 C 
ATOM     12  C   UNL     1       6.165   8.406   0.000  0.00  0.00    +0.115 C 
BRANCH   9  10
ATOM     10  O   UNL     1       4.951  10.788   0.000  0.00  0.00    -0.390 OA
ATOM     11  H   UNL     1       5.053  11.752   0.000  0.00  0.00    +0.210 HD
ENDBRANCH   9  10
ENDBRANCH   2   3
ENDBRANCH   1   2
TORSDOF 9