REMARK  Name = NSC 93674
REMARK  8 active torsions:
REMARK  status: ('A' for Active; 'I' for Inactive)
REMARK    1  A    between atoms: C_1  and  O_2
REMARK    2  A    between atoms: C_3  and  O_4
REMARK    3  A    between atoms: O_4  and  C_5
REMARK    4  A    between atoms: N_10  and  C_44
REMARK    5  A    between atoms: N_27  and  C_28
REMARK    6  A    between atoms: C_33  and  O_34
REMARK    7  A    between atoms: O_34  and  C_35
REMARK    8  A    between atoms: C_40  and  O_41
REMARK                            x       y       z     vdW  Elec       q    Type
REMARK                         _______ _______ _______ _____ _____    ______ ____
ROOT
ATOM      1  C   UNL     1      11.228  -0.877   0.000  0.00  0.00    +0.202 A 
ATOM      4  C   UNL     1      11.228   0.623   0.000  0.00  0.00    +0.165 A 
ATOM      7  C   UNL     1       9.929   1.373   0.000  0.00  0.00    +0.053 A 
ATOM      8  C   UNL     1       8.630   0.623   0.000  0.00  0.00    -0.034 A 
ATOM      9  C   UNL     1       7.331   1.373   0.000  0.00  0.00    +0.051 C 
ATOM     10  C   UNL     1       6.032   0.623   0.000  0.00  0.00    +0.089 C 
ATOM     11  N   UNL     1       6.032  -0.877   0.000  0.00  0.00    -0.298 NA
ATOM     12  C   UNL     1       7.331  -1.627   0.000  0.00  0.00    +0.095 C 
ATOM     13  C   UNL     1       6.321  -2.736   0.000  0.00  0.00    +0.059 C 
ATOM     14  C   UNL     1       5.694  -4.098   0.000  0.00  0.00    -0.045 A 
ATOM     15  C   UNL     1       5.509  -5.587   0.000  0.00  0.00    +0.007 A 
ATOM     16  C   UNL     1       5.785  -7.062   0.000  0.00  0.00    +0.046 A 
ATOM     17  C   UNL     1       6.495  -8.383   0.000  0.00  0.00    +0.129 A 
ATOM     18  O   UNL     1       7.572  -9.427   0.000  0.00  0.00    -0.452 OA
ATOM     19  C   UNL     1       8.914 -10.096   0.000  0.00  0.00    +0.170 A 
ATOM     20  C   UNL     1      10.397  -9.240   0.000  0.00  0.00    +0.053 A 
ATOM     21  C   UNL     1      11.879 -10.096   0.000  0.00  0.00    -0.042 A 
ATOM     22  C   UNL     1      11.879 -11.596   0.000  0.00  0.00    +0.007 A 
ATOM     23  C   UNL     1      10.580 -12.346   0.000  0.00  0.00    +0.049 A 
ATOM     24  C   UNL     1      13.222  -9.427   0.000  0.00  0.00    +0.059 C 
ATOM     25  C   UNL     1      14.298  -8.383   0.000  0.00  0.00    +0.091 C 
ATOM     26  N   UNL     1      15.088  -9.659   0.000  0.00  0.00    -0.298 NA
ATOM     27  C   UNL     1      14.378 -10.980   0.000  0.00  0.00    +0.105 C 
ATOM     28  C   UNL     1      16.587  -9.612   0.000  0.00  0.00    +0.089 C 
ATOM     29  C   UNL     1      17.297  -8.291   0.000  0.00  0.00    +0.051 C 
ATOM     30  C   UNL     1      16.507  -7.016   0.000  0.00  0.00    -0.038 A 
ATOM     31  C   UNL     1      17.247  -5.330   0.000  0.00  0.00    +0.053 A 
ATOM     32  C   UNL     1      16.595  -3.979   0.000  0.00  0.00    +0.162 A 
ATOM     35  C   UNL     1      15.099  -4.099   0.000  0.00  0.00    +0.170 A 
ATOM     36  C   UNL     1      15.284  -5.587   0.000  0.00  0.00    +0.055 A 
ATOM     37  O   UNL     1      14.472  -2.736   0.000  0.00  0.00    -0.448 OA
ATOM     38  C   UNL     1      15.008  -7.062   0.000  0.00  0.00    -0.023 A 
ATOM     39  C   UNL     1       9.281 -11.596   0.000  0.00  0.00    +0.159 A 
ATOM     42  C   UNL     1       7.469  -5.527   0.000  0.00  0.00    +0.046 A 
ATOM     43  C   UNL     1       7.193  -4.052   0.000  0.00  0.00    +0.007 A 
ATOM     44  C   UNL     1       4.733  -1.627   0.000  0.00  0.00    +0.105 C 
ATOM     45  C   UNL     1       8.630  -0.877   0.000  0.00  0.00    +0.019 A 
ATOM     46  C   UNL     1       9.929  -1.627   0.000  0.00  0.00    +0.178 A 
ENDROOT
BRANCH   1   2
ATOM      2  O   UNL     1      12.638  -1.390   0.000  0.00  0.00    -0.501 OA
ATOM      3  H   UNL     1      12.801  -2.313   0.000  0.00  0.00    +0.292 HD
ENDBRANCH   1   2
BRANCH   4   5
ATOM      5  O   UNL     1      12.527   1.373   0.000  0.00  0.00    -0.491 OA
ATOM      6  C   UNL     1      13.826   0.623   0.000  0.00  0.00    +0.277 C 
ENDBRANCH   4   5
BRANCH  32  33
ATOM     33  O   UNL     1      17.340  -2.677   0.000  0.00  0.00    -0.491 OA
ATOM     34  C   UNL     1      16.587  -1.381   0.000  0.00  0.00    +0.277 C 
ENDBRANCH  32  33
BRANCH  39  40
ATOM     40  O   UNL     1       8.081 -12.496   0.000  0.00  0.00    -0.503 OA
ATOM     41  H   UNL     1       7.219 -12.128   0.000  0.00  0.00    +0.292 HD
ENDBRANCH  39  40
TORSDOF 4