REMARK  Name = 310354
REMARK  10 active torsions:
REMARK  status: ('A' for Active; 'I' for Inactive)
REMARK    1  A    between atoms: C_3  and  C_18
REMARK    2  A    between atoms: C_3  and  C_20
REMARK    3  A    between atoms: C_4  and  C_19
REMARK    4  A    between atoms: C_4  and  C_21
REMARK    5  A    between atoms: C_9  and  C_11
REMARK    6  A    between atoms: C_10  and  C_22
REMARK    7  A    between atoms: C_15  and  C_24
REMARK    8  A    between atoms: C_16  and  C_24
REMARK    9  A    between atoms: N_17  and  O_26
REMARK   10  A    between atoms: C_22  and  C_23
REMARK                            x       y       z     vdW  Elec       q    Type
REMARK                         _______ _______ _______ _____ _____    ______ ____
ROOT
ATOM      1  C   UNL     1      -1.752   7.354   0.000  0.00  0.00    +0.012 C 
ATOM      2  C   UNL     1      -1.752   5.854   0.000  0.00  0.00    +0.012 C 
ATOM      3  C   UNL     1      -0.453   5.104   0.000  0.00  0.00    -0.010 C 
ATOM      4  C   UNL     1       0.511   3.955   0.000  0.00  0.00    +0.016 C 
ATOM      5  C   UNL     1      -1.418   3.955   0.000  0.00  0.00    +0.016 C 
ATOM      6  C   UNL     1       0.846   5.854   0.000  0.00  0.00    -0.038 A 
ATOM      7  C   UNL     1       2.145   5.104   0.000  0.00  0.00    +0.008 A 
ATOM      8  C   UNL     1       3.444   5.854   0.000  0.00  0.00    -0.038 A 
ATOM     11  C   UNL     1       3.444   7.354   0.000  0.00  0.00    +0.004 A 
ATOM     25  C   UNL     1       2.145   8.104   0.000  0.00  0.00    +0.014 A 
ATOM     26  C   UNL     1       0.846   7.354   0.000  0.00  0.00    -0.037 A 
ATOM     27  C   UNL     1      -0.453   8.104   0.000  0.00  0.00    -0.010 C 
ATOM     28  C   UNL     1       0.511   9.253   0.000  0.00  0.00    +0.016 C 
ATOM     29  C   UNL     1      -1.418   9.253   0.000  0.00  0.00    +0.016 C 
ENDROOT
BRANCH  11  12
ATOM     12  C   UNL     1       4.743   8.104   0.000  0.00  0.00    +0.079 A 
ATOM     13  N   UNL     1       6.113   7.494   0.000  0.00  0.00    -0.243 NA
ATOM     14  C   UNL     1       7.117   8.609   0.000  0.00  0.00    +0.091 A 
ATOM     23  S   UNL     1       6.367   9.908   0.000  0.00  0.00    -0.079 S 
ATOM     24  C   UNL     1       4.900   9.596   0.000  0.00  0.00    +0.075 A 
BRANCH  14  15
ATOM     15  C   UNL     1       8.609   8.452   0.000  0.00  0.00    +0.195 C 
BRANCH  15  16
ATOM     16  C   UNL     1       9.490   9.666   0.000  0.00  0.00    +0.337 C 
ATOM     17  N   UNL     1      10.982   9.509   0.000  0.00  0.00    -0.247 N 
ATOM     18  H   UNL     1      11.561  10.305   0.000  0.00  0.00    +0.288 HD
ATOM     19  H   UNL     1      11.383   8.610   0.000  0.00  0.00    +0.288 HD
ATOM     20  N   UNL     1       8.880  11.036   0.000  0.00  0.00    +0.146 NA
BRANCH  20  21
ATOM     21  O   UNL     1       9.762  12.249   0.000  0.00  0.00    -0.311 OA
ATOM     22  H   UNL     1      10.694  12.152   0.000  0.00  0.00    +0.361 HD
ENDBRANCH  20  21
ENDBRANCH  15  16
ENDBRANCH  14  15
ENDBRANCH  11  12
BRANCH   8   9
ATOM      9  C   UNL     1       4.743   5.104   0.000  0.00  0.00    +0.032 C 
ATOM     10  C   UNL     1       4.743   3.604   0.000  0.00  0.00    +0.009 C 
ENDBRANCH   8   9
TORSDOF 5