REMARK  Name = 303304
REMARK  4 active torsions:
REMARK  status: ('A' for Active; 'I' for Inactive)
REMARK    1  A    between atoms: N_5  and  C_6
REMARK    2  A    between atoms: C_6  and  C_7
REMARK    3  A    between atoms: C_6  and  C_8
REMARK    4  A    between atoms: C_6  and  C_14
REMARK                            x       y       z     vdW  Elec       q    Type
REMARK                         _______ _______ _______ _____ _____    ______ ____
ROOT
ATOM      3  C   UNL     1      -3.750   5.250   0.000  0.00  0.00    +0.158 C 
ENDROOT
BRANCH   3   4
ATOM      4  C   UNL     1      -3.750   6.750   0.000  0.00  0.00    -0.005 A 
ATOM      5  C   UNL     1      -2.451   7.500   0.000  0.00  0.00    +0.007 A 
ATOM      6  C   UNL     1      -2.451   9.000   0.000  0.00  0.00    +0.000 A 
ATOM      7  C   UNL     1      -3.750   9.750   0.000  0.00  0.00    +0.000 A 
ATOM      8  C   UNL     1      -5.049   9.000   0.000  0.00  0.00    +0.000 A 
ATOM      9  C   UNL     1      -5.049   7.500   0.000  0.00  0.00    +0.007 A 
ENDBRANCH   3   4
BRANCH   3  10
ATOM     10  C   UNL     1      -3.750   3.750   0.000  0.00  0.00    -0.005 A 
ATOM     11  C   UNL     1      -5.049   3.000   0.000  0.00  0.00    +0.007 A 
ATOM     12  C   UNL     1      -5.049   1.500   0.000  0.00  0.00    +0.000 A 
ATOM     13  C   UNL     1      -3.750   0.750   0.000  0.00  0.00    +0.000 A 
ATOM     14  C   UNL     1      -2.451   1.500   0.000  0.00  0.00    +0.000 A 
ATOM     15  C   UNL     1      -2.451   3.000   0.000  0.00  0.00    +0.007 A 
ENDBRANCH   3  10
BRANCH   3   2
ATOM      1  C   UNL     1      -6.132   6.463   0.000  0.00  0.00    +0.109 A 
ATOM      2  N   UNL     1      -5.250   5.250   0.000  0.00  0.00    -0.312 N 
ATOM     18  C   UNL     1      -6.132   4.037   0.000  0.00  0.00    +0.201 A 
ATOM     19  N   UNL     1      -7.558   4.500   0.000  0.00  0.00    -0.244 NA
ATOM     20  C   UNL     1      -7.558   6.000   0.000  0.00  0.00    +0.130 A 
ENDBRANCH   3   2
BRANCH   3  16
ATOM     16  C   UNL     1      -2.250   5.250   0.000  0.00  0.00    -0.067 C 
ATOM     17  C   UNL     1      -0.750   5.250   0.000  0.00  0.00    +0.007 C 
ENDBRANCH   3  16
TORSDOF 4