REMARK  Name = 31069
REMARK  6 active torsions:
REMARK  status: ('A' for Active; 'I' for Inactive)
REMARK    1  A    between atoms: C_2  and  N_15
REMARK    2  A    between atoms: C_16  and  O_18
REMARK    3  A    between atoms: O_18  and  C_19
REMARK    4  A    between atoms: C_19  and  C_20
REMARK    5  A    between atoms: C_20  and  C_21
REMARK    6  A    between atoms: C_20  and  C_22
REMARK                            x       y       z     vdW  Elec       q    Type
REMARK                         _______ _______ _______ _____ _____    ______ ____
ROOT
ATOM      1  O   UNL     1       8.819  -2.725   0.000  0.00  0.00    -0.455 OA
ATOM      2  C   UNL     1       7.520  -1.976   0.000  0.00  0.00    +0.134 A 
ATOM      3  C   UNL     1       6.221  -2.725   0.000  0.00  0.00    +0.046 A 
ATOM      4  C   UNL     1       4.922  -1.976   0.000  0.00  0.00    +0.004 A 
ATOM      5  C   UNL     1       4.922  -0.475   0.000  0.00  0.00    +0.001 A 
ATOM      6  C   UNL     1       6.221   0.275   0.000  0.00  0.00    +0.009 A 
ATOM      7  C   UNL     1       7.520  -0.475   0.000  0.00  0.00    +0.020 A 
ATOM      8  C   UNL     1       8.819   0.275   0.000  0.00  0.00    +0.144 C 
ATOM     18  C   UNL     1      10.118  -0.475   0.000  0.00  0.00    +0.020 A 
ATOM     19  C   UNL     1      11.417   0.275   0.000  0.00  0.00    +0.009 A 
ATOM     20  C   UNL     1      12.716  -0.475   0.000  0.00  0.00    +0.001 A 
ATOM     21  C   UNL     1      12.716  -1.975   0.000  0.00  0.00    +0.004 A 
ATOM     22  C   UNL     1      11.417  -2.725   0.000  0.00  0.00    +0.046 A 
ATOM     23  C   UNL     1      10.118  -1.975   0.000  0.00  0.00    +0.134 A 
ENDROOT
BRANCH   8   9
ATOM      9  N   UNL     1       8.819   1.775   0.000  0.00  0.00    -0.270 N 
ATOM     10  H   UNL     1       9.671   2.267   0.000  0.00  0.00    +0.153 HD
ATOM     11  C   UNL     1       7.520   2.525   0.000  0.00  0.00    +0.401 C 
ATOM     17  O   UNL     1       6.221   1.775   0.000  0.00  0.00    -0.226 OA
BRANCH  11  12
ATOM     12  O   UNL     1       7.520   4.024   0.000  0.00  0.00    -0.450 OA
BRANCH  12  13
ATOM     13  C   UNL     1       6.221   4.774   0.000  0.00  0.00    +0.236 C 
BRANCH  13  14
ATOM     14  C   UNL     1       4.922   4.024   0.000  0.00  0.00    +0.021 C 
ATOM     15  C   UNL     1       4.922   2.525   0.000  0.00  0.00    +0.010 C 
ATOM     16  C   UNL     1       3.623   4.774   0.000  0.00  0.00    +0.010 C 
ENDBRANCH  13  14
ENDBRANCH  12  13
ENDBRANCH  11  12
ENDBRANCH   8   9
TORSDOF 4