REMARK  Name = 301167
REMARK  3 active torsions:
REMARK  status: ('A' for Active; 'I' for Inactive)
REMARK    1  A    between atoms: C_5  and  S_11
REMARK    2  A    between atoms: C_6  and  S_11
REMARK    3  A    between atoms: C_9  and  N_16
REMARK                            x       y       z     vdW  Elec       q    Type
REMARK                         _______ _______ _______ _____ _____    ______ ____
ROOT
ATOM      7  S   UNL     1      -6.649  -2.223   0.000  0.00  0.00    -0.084 S 
ENDROOT
BRANCH   7   6
ATOM      1  C   UNL     1      -2.900  -0.924   0.000  0.00  0.00    +0.153 A 
ATOM      2  N   UNL     1      -2.150  -2.223   0.000  0.00  0.00    -0.136 NA
ATOM      3  N   UNL     1      -2.900  -3.522   0.000  0.00  0.00    -0.135 NA
ATOM      4  C   UNL     1      -4.399  -3.522   0.000  0.00  0.00    +0.165 A 
ATOM      5 CL   UNL     1      -5.149  -4.821   0.000  0.00  0.00    -0.059 Cl
ATOM      6  C   UNL     1      -5.149  -2.223   0.000  0.00  0.00    +0.054 A 
ATOM     17  C   UNL     1      -4.399  -0.924   0.000  0.00  0.00    +0.060 A 
ATOM     18 CL   UNL     1      -2.150   0.375   0.000  0.00  0.00    -0.060 Cl
ENDBRANCH   7   6
BRANCH   7   8
ATOM      8  C   UNL     1      -7.399  -0.924   0.000  0.00  0.00    +0.033 A 
ATOM      9  C   UNL     1      -8.899  -0.924   0.000  0.00  0.00    +0.038 A 
ATOM     13  C   UNL     1      -9.649   0.375   0.000  0.00  0.00    +0.024 A 
ATOM     14  C   UNL     1      -8.899   1.674   0.000  0.00  0.00    +0.002 A 
ATOM     15  C   UNL     1      -7.399   1.674   0.000  0.00  0.00    +0.001 A 
ATOM     16  C   UNL     1      -6.649   0.375   0.000  0.00  0.00    +0.017 A 
BRANCH   9  10
ATOM     10  N   UNL     1      -9.649  -2.223   0.000  0.00  0.00    -0.357 N 
ATOM     11  H   UNL     1      -9.157  -3.076   0.000  0.00  0.00    +0.142 HD
ATOM     12  H   UNL     1     -10.634  -2.223   0.000  0.00  0.00    +0.142 HD
ENDBRANCH   9  10
ENDBRANCH   7   8
TORSDOF 3