REMARK  Name = 3001
REMARK  7 active torsions:
REMARK  status: ('A' for Active; 'I' for Inactive)
REMARK    1  A    between atoms: C_1  and  C_8
REMARK    2  A    between atoms: C_1  and  C_12
REMARK    3  A    between atoms: C_6  and  C_7
REMARK    4  A    between atoms: C_8  and  C_9
REMARK    5  A    between atoms: C_9  and  O_11
REMARK    6  A    between atoms: C_12  and  C_13
REMARK    7  A    between atoms: C_13  and  O_15
REMARK                            x       y       z     vdW  Elec       q    Type
REMARK                         _______ _______ _______ _____ _____    ______ ____
ROOT
ATOM      1  C   UNL     1       1.170   5.474   0.000  0.00  0.00    -0.009 C 
ATOM     12  C   UNL     1       1.170   3.974   0.000  0.00  0.00    +0.011 C 
ATOM     13  C   UNL     1      -0.129   3.224   0.000  0.00  0.00    -0.014 C 
ATOM     14  C   UNL     1      -0.129   1.724   0.000  0.00  0.00    +0.007 C 
ATOM     15  C   UNL     1      -1.428   3.974   0.000  0.00  0.00    +0.003 C 
ATOM     16  C   UNL     1      -1.428   5.474   0.000  0.00  0.00    +0.001 C 
ATOM     17  C   UNL     1      -0.129   6.224   0.000  0.00  0.00    +0.008 C 
ENDROOT
BRANCH   1   2
ATOM      2  C   UNL     1       2.647   5.213   0.000  0.00  0.00    +0.128 C 
BRANCH   2   3
ATOM      3  C   UNL     1       3.160   3.804   0.000  0.00  0.00    +0.305 C 
ATOM      6  O   UNL     1       4.637   3.543   0.000  0.00  0.00    -0.251 OA
BRANCH   3   4
ATOM      4  O   UNL     1       2.196   2.655   0.000  0.00  0.00    -0.481 OA
ATOM      5  H   UNL     1       1.273   2.817   0.000  0.00  0.00    +0.295 HD
ENDBRANCH   3   4
ENDBRANCH   2   3
ENDBRANCH   1   2
BRANCH   1   7
ATOM      7  C   UNL     1       1.683   6.883   0.000  0.00  0.00    +0.128 C 
BRANCH   7   8
ATOM      8  C   UNL     1       3.160   7.144   0.000  0.00  0.00    +0.305 C 
ATOM     11  O   UNL     1       3.673   8.553   0.000  0.00  0.00    -0.251 OA
BRANCH   8   9
ATOM      9  O   UNL     1       4.124   5.995   0.000  0.00  0.00    -0.481 OA
ATOM     10  H   UNL     1       3.804   5.114   0.000  0.00  0.00    +0.295 HD
ENDBRANCH   8   9
ENDBRANCH   7   8
ENDBRANCH   1   7
TORSDOF 6