REMARK  Name = 303294
REMARK  5 active torsions:
REMARK  status: ('A' for Active; 'I' for Inactive)
REMARK    1  A    between atoms: C_3  and  S_14
REMARK    2  A    between atoms: C_6  and  C_11
REMARK    3  A    between atoms: C_7  and  C_24
REMARK    4  A    between atoms: N_8  and  C_18
REMARK    5  A    between atoms: C_11  and  S_14
REMARK                            x       y       z     vdW  Elec       q    Type
REMARK                         _______ _______ _______ _____ _____    ______ ____
ROOT
ATOM      9  C   UNL     1      -7.223  -5.885   0.000  0.00  0.00    +0.166 C 
ATOM     10  C   UNL     1      -7.686  -7.311   0.000  0.00  0.00    +0.052 C 
ATOM     11  C   UNL     1      -6.804  -8.525   0.000  0.00  0.00    +0.063 C 
ATOM     12  N   UNL     1      -9.186  -7.311   0.000  0.00  0.00    -0.181 NA
ATOM     13  N   UNL     1      -9.650  -5.885   0.000  0.00  0.00    -0.160 N 
ATOM     20  C   UNL     1      -8.436  -5.003   0.000  0.00  0.00    +0.253 C 
ATOM     21  O   UNL     1      -8.436  -3.503   0.000  0.00  0.00    -0.272 OA
ENDROOT
BRANCH  13  14
ATOM     14  C   UNL     1     -11.076  -5.421   0.000  0.00  0.00    +0.060 A 
ATOM     15  C   UNL     1     -11.388  -3.954   0.000  0.00  0.00    +0.025 A 
ATOM     16  C   UNL     1     -12.815  -3.491   0.000  0.00  0.00    +0.002 A 
ATOM     17  C   UNL     1     -13.929  -4.494   0.000  0.00  0.00    +0.000 A 
ATOM     18  C   UNL     1     -13.618  -5.962   0.000  0.00  0.00    +0.002 A 
ATOM     19  C   UNL     1     -12.191  -6.425   0.000  0.00  0.00    +0.025 A 
ENDBRANCH  13  14
BRANCH   9   7
ATOM      7  C   UNL     1      -5.796  -5.421   0.000  0.00  0.00    +0.047 C 
ATOM      8  S   UNL     1      -5.484  -3.954   0.000  0.00  0.00    -0.048 S 
BRANCH   7   6
ATOM      6  S   UNL     1      -4.681  -6.425   0.000  0.00  0.00    -0.108 S 
BRANCH   6   2
ATOM      1  C   UNL     1      -2.791  -4.535   0.000  0.00  0.00    +0.233 C 
ATOM      2  C   UNL     1      -3.255  -5.962   0.000  0.00  0.00    +0.146 C 
ATOM      3  C   UNL     1      -2.041  -6.843   0.000  0.00  0.00    +0.120 C 
ATOM      4  C   UNL     1      -0.828  -5.962   0.000  0.00  0.00    +0.221 C 
ATOM      5  O   UNL     1       0.599  -6.425   0.000  0.00  0.00    -0.275 OA
ATOM     22  N   UNL     1      -1.291  -4.535   0.000  0.00  0.00    -0.255 N 
ATOM     23  H   UNL     1      -0.409  -3.321   0.000  0.00  0.00    +0.158 HD
ATOM     24  O   UNL     1      -3.673  -3.321   0.000  0.00  0.00    -0.274 OA
ENDBRANCH   6   2
ENDBRANCH   7   6
ENDBRANCH   9   7
TORSDOF 4