REMARK  Name = 303244
REMARK  4 active torsions:
REMARK  status: ('A' for Active; 'I' for Inactive)
REMARK    1  A    between atoms: C_1  and  C_14
REMARK    2  A    between atoms: C_4  and  C_13
REMARK    3  A    between atoms: C_6  and  C_12
REMARK    4  A    between atoms: C_7  and  C_16
REMARK                            x       y       z     vdW  Elec       q    Type
REMARK                         _______ _______ _______ _____ _____    ______ ____
ROOT
ATOM      1  C   UNL     1       4.922   2.525   0.000  0.00  0.00    +0.081 A 
ATOM      4  C   UNL     1       6.221   1.775   0.000  0.00  0.00    +0.088 A 
ATOM      5  C   UNL     1       6.221   0.275   0.000  0.00  0.00    -0.001 A 
ATOM      6  C   UNL     1       4.922  -0.475   0.000  0.00  0.00    +0.011 A 
ATOM      7  C   UNL     1       3.623   0.275   0.000  0.00  0.00    -0.046 A 
ATOM      8  C   UNL     1       2.324  -0.475   0.000  0.00  0.00    +0.044 C 
ATOM      9  C   UNL     1       7.520  -0.475   0.000  0.00  0.00    +0.100 C 
ATOM     10  C   UNL     1       7.520  -1.976   0.000  0.00  0.00    +0.033 C 
ATOM     11  N   UNL     1       8.819   0.275   0.000  0.00  0.00    -0.328 N 
ATOM     12  H   UNL     1      10.118  -0.475   0.000  0.00  0.00    +0.147 HD
ATOM     13  C   UNL     1       8.819   1.775   0.000  0.00  0.00    +0.182 C 
ATOM     14  N   UNL     1       7.520   2.525   0.000  0.00  0.00    -0.239 NA
ATOM     15  C   UNL     1       3.623   1.775   0.000  0.00  0.00    -0.028 A 
ATOM     16  C   UNL     1       2.324   2.525   0.000  0.00  0.00    +0.045 C 
ENDROOT
BRANCH   1   2
ATOM      2  C   UNL     1       4.922   4.024   0.000  0.00  0.00    +0.102 C 
ATOM      3  N   UNL     1       4.922   5.524   0.000  0.00  0.00    -0.191 NA
ENDBRANCH   1   2
TORSDOF 1