REMARK  Name = 30205
REMARK  5 active torsions:
REMARK  status: ('A' for Active; 'I' for Inactive)
REMARK    1  A    between atoms: C_2  and  O_21
REMARK    2  A    between atoms: C_7  and  N_24
REMARK    3  A    between atoms: C_8  and  N_24
REMARK    4  A    between atoms: O_21  and  C_22
REMARK    5  A    between atoms: C_22  and  C_23
REMARK                            x       y       z     vdW  Elec       q    Type
REMARK                         _______ _______ _______ _____ _____    ______ ____
ROOT
ATOM      1  N   UNL     1      -2.223   3.650   0.000  0.00  0.00    -0.247 NA
ATOM      2  C   UNL     1      -0.924   4.399   0.000  0.00  0.00    +0.073 A 
ATOM      3  C   UNL     1       0.375   3.650   0.000  0.00  0.00    +0.028 A 
ATOM      4  C   UNL     1       1.674   4.399   0.000  0.00  0.00    +0.002 A 
ATOM      5  C   UNL     1       1.674   5.899   0.000  0.00  0.00    +0.001 A 
ATOM      6  C   UNL     1       0.375   6.649   0.000  0.00  0.00    +0.012 A 
ATOM      7  C   UNL     1      -0.924   5.899   0.000  0.00  0.00    +0.022 A 
ATOM      8  C   UNL     1      -2.223   6.649   0.000  0.00  0.00    +0.050 A 
ATOM     20  C   UNL     1      -3.522   5.899   0.000  0.00  0.00    +0.022 A 
ATOM     21  C   UNL     1      -4.821   6.649   0.000  0.00  0.00    +0.012 A 
ATOM     22  C   UNL     1      -6.120   5.899   0.000  0.00  0.00    +0.001 A 
ATOM     23  C   UNL     1      -6.120   4.399   0.000  0.00  0.00    +0.002 A 
ATOM     24  C   UNL     1      -4.821   3.650   0.000  0.00  0.00    +0.028 A 
ATOM     25  C   UNL     1      -3.522   4.399   0.000  0.00  0.00    +0.073 A 
ENDROOT
BRANCH   8   9
ATOM      9  N   UNL     1      -2.223   8.149   0.000  0.00  0.00    -0.313 N 
ATOM     10  H   UNL     1      -3.076   8.642   0.000  0.00  0.00    +0.152 HD
BRANCH   9  11
ATOM     11  C   UNL     1      -0.924   8.899   0.000  0.00  0.00    +0.032 A 
ATOM     12  C   UNL     1      -0.924  10.400   0.000  0.00  0.00    +0.027 A 
ATOM     13  C   UNL     1       0.375  11.150   0.000  0.00  0.00    +0.047 A 
ATOM     14  C   UNL     1       1.674  10.400   0.000  0.00  0.00    +0.121 A 
ATOM     18  C   UNL     1       1.674   8.899   0.000  0.00  0.00    +0.047 A 
ATOM     19  C   UNL     1       0.375   8.149   0.000  0.00  0.00    +0.027 A 
BRANCH  14  15
ATOM     15  O   UNL     1       2.973  11.150   0.000  0.00  0.00    -0.492 OA
BRANCH  15  16
ATOM     16  C   UNL     1       2.973  12.650   0.000  0.00  0.00    +0.225 C 
ATOM     17  C   UNL     1       1.674  13.400   0.000  0.00  0.00    +0.048 C 
ENDBRANCH  15  16
ENDBRANCH  14  15
ENDBRANCH   9  11
ENDBRANCH   8   9
TORSDOF 4