REMARK  Name = 304902
REMARK  4 active torsions:
REMARK  status: ('A' for Active; 'I' for Inactive)
REMARK    1  A    between atoms: C_2  and  C_12
REMARK    2  A    between atoms: C_3  and  C_14
REMARK    3  A    between atoms: C_5  and  C_11
REMARK    4  A    between atoms: C_9  and  N_13
REMARK                            x       y       z     vdW  Elec       q    Type
REMARK                         _______ _______ _______ _____ _____    ______ ____
ROOT
ATOM      1  C   UNL     1      -3.348  -2.250   0.000  0.00  0.00    +0.015 A 
ATOM      2  C   UNL     1      -4.647  -3.000   0.000  0.00  0.00    +0.006 A 
ATOM      3  C   UNL     1      -4.647  -4.500   0.000  0.00  0.00    +0.092 A 
ATOM      4  C   UNL     1      -5.946  -5.250   0.000  0.00  0.00    +0.051 A 
ATOM      8  C   UNL     1      -7.245  -4.500   0.000  0.00  0.00    +0.028 A 
ATOM      9  C   UNL     1      -7.245  -3.000   0.000  0.00  0.00    -0.045 A 
ATOM     10  C   UNL     1      -8.544  -2.250   0.000  0.00  0.00    +0.044 C 
ATOM     11  N   UNL     1      -3.348  -5.250   0.000  0.00  0.00    -0.253 NA
ATOM     12  C   UNL     1      -2.049  -4.500   0.000  0.00  0.00    +0.114 A 
ATOM     13  C   UNL     1      -5.946  -2.250   0.000  0.00  0.00    -0.038 A 
ATOM     14  C   UNL     1      -5.946  -0.750   0.000  0.00  0.00    +0.045 C 
ATOM     15  C   UNL     1      -2.049  -3.000   0.000  0.00  0.00    -0.032 A 
ATOM     16  C   UNL     1      -0.750  -2.250   0.000  0.00  0.00    +0.045 C 
ENDROOT
BRANCH   4   5
ATOM      5  N   UNL     1      -5.946  -6.750   0.000  0.00  0.00    -0.356 N 
ATOM      6  H   UNL     1      -5.093  -7.242   0.000  0.00  0.00    +0.142 HD
ATOM      7  H   UNL     1      -6.799  -7.242   0.000  0.00  0.00    +0.142 HD
ENDBRANCH   4   5
TORSDOF 1