REMARK  Name = 311727
REMARK  3 active torsions:
REMARK  status: ('A' for Active; 'I' for Inactive)
REMARK    1  A    between atoms: C_2  and  N_13
REMARK    2  A    between atoms: C_5  and  S_6
REMARK    3  A    between atoms: S_6  and  C_8
REMARK                            x       y       z     vdW  Elec       q    Type
REMARK                         _______ _______ _______ _____ _____    ______ ____
ROOT
ATOM      1  C   UNL     1       3.873   3.576   0.000  0.00  0.00    +0.204 A 
ATOM      2  C   UNL     1       3.123   2.277   0.000  0.00  0.00    +0.331 A 
ATOM      6  S   UNL     1       4.127   1.162   0.000  0.00  0.00    +0.013 S 
ATOM      7  C   UNL     1       5.497   1.773   0.000  0.00  0.00    +0.147 A 
ATOM     15  N   UNL     1       5.341   3.264   0.000  0.00  0.00    -0.234 NA
ENDROOT
BRANCH   2   3
ATOM      3  N   UNL     1       1.632   2.120   0.000  0.00  0.00    +0.089 N 
ATOM      4  O   UNL     1       1.022   0.750   0.000  0.00  0.00    +0.042 OA
ATOM      5  O   UNL     1       0.750   3.334   0.000  0.00  0.00    -0.576 OA
ENDBRANCH   2   3
BRANCH   7   8
ATOM      8  S   UNL     1       6.797   1.023   0.000  0.00  0.00    -0.043 S 
BRANCH   8   9
ATOM      9  C   UNL     1       8.096   1.773   0.000  0.00  0.00    +0.107 A 
ATOM     10  N   UNL     1       9.395   1.023   0.000  0.00  0.00    -0.229 NA
ATOM     11  C   UNL     1      10.694   1.773   0.000  0.00  0.00    +0.222 A 
ATOM     12  N   UNL     1      10.694   3.273   0.000  0.00  0.00    -0.244 NA
ATOM     13  C   UNL     1       9.395   4.023   0.000  0.00  0.00    +0.115 A 
ATOM     14  C   UNL     1       8.095   3.273   0.000  0.00  0.00    +0.055 A 
ENDBRANCH   8   9
ENDBRANCH   7   8
TORSDOF 3