REMARK  Name = 311074
REMARK  4 active torsions:
REMARK  status: ('A' for Active; 'I' for Inactive)
REMARK    1  A    between atoms: N_3  and  C_13
REMARK    2  A    between atoms: C_4  and  S_6
REMARK    3  A    between atoms: C_5  and  N_14
REMARK    4  A    between atoms: S_6  and  C_7
REMARK                            x       y       z     vdW  Elec       q    Type
REMARK                         _______ _______ _______ _____ _____    ______ ____
ROOT
ATOM      1  N   UNL     1      -3.152   1.028   0.000  0.00  0.00    -0.170 NA
ATOM      2  C   UNL     1      -3.116  -0.472   0.000  0.00  0.00    +0.206 A 
ATOM      3  N   UNL     1      -1.679  -0.901   0.000  0.00  0.00    -0.322 N 
ATOM      4  C   UNL     1      -1.181  -2.316   0.000  0.00  0.00    +0.151 C 
ATOM      5  C   UNL     1      -0.827   0.334   0.000  0.00  0.00    +0.184 A 
ATOM     13  C   UNL     1      -1.737   1.526   0.000  0.00  0.00    +0.399 A 
ENDROOT
BRANCH  13  14
ATOM     14  N   UNL     1      -1.308   2.963   0.000  0.00  0.00    +0.103 N 
ATOM     15  O   UNL     1      -2.338   4.053   0.000  0.00  0.00    +0.043 OA
ATOM     16  O   UNL     1       0.151   3.310   0.000  0.00  0.00    -0.575 OA
ENDBRANCH  13  14
BRANCH   5   6
ATOM      6  S   UNL     1       0.673   0.370   0.000  0.00  0.00    -0.024 S 
BRANCH   6   7
ATOM      7  C   UNL     1       1.454  -0.911   0.000  0.00  0.00    +0.195 A 
ATOM      8  N   UNL     1       2.949  -1.032   0.000  0.00  0.00    -0.322 N 
ATOM      9  H   UNL     1       3.926   0.107   0.000  0.00  0.00    +0.169 HD
ATOM     10  C   UNL     1       3.296  -2.491   0.000  0.00  0.00    +0.222 A 
ATOM     11  N   UNL     1       2.015  -3.272   0.000  0.00  0.00    -0.137 NA
ATOM     12  N   UNL     1       0.877  -2.296   0.000  0.00  0.00    -0.123 NA
ENDBRANCH   6   7
ENDBRANCH   5   6
TORSDOF 3