REMARK  Name = 3064
REMARK  7 active torsions:
REMARK  status: ('A' for Active; 'I' for Inactive)
REMARK    1  A    between atoms: N_1  and  C_20
REMARK    2  A    between atoms: C_10  and  C_18
REMARK    3  A    between atoms: C_12  and  C_19
REMARK    4  A    between atoms: C_20  and  C_21
REMARK    5  A    between atoms: C_21  and  O_22
REMARK    6  A    between atoms: O_22  and  C_23
REMARK    7  A    between atoms: C_23  and  C_25
REMARK                            x       y       z     vdW  Elec       q    Type
REMARK                         _______ _______ _______ _____ _____    ______ ____
ROOT
ATOM      1  N   UNL     1      -7.520   0.475   0.000  0.00  0.00    -0.319 N 
ATOM      8  C   UNL     1      -6.221  -0.275   0.000  0.00  0.00    +0.170 A 
ATOM      9  C   UNL     1      -6.221  -1.775   0.000  0.00  0.00    +0.171 A 
ATOM     10  C   UNL     1      -4.922  -2.525   0.000  0.00  0.00    +0.282 A 
ATOM     11  N   UNL     1      -3.623  -1.775   0.000  0.00  0.00    -0.272 N 
ATOM     12  H   UNL     1      -2.324  -2.525   0.000  0.00  0.00    +0.174 HD
ATOM     13  C   UNL     1      -3.623  -0.275   0.000  0.00  0.00    +0.351 A 
ATOM     14  O   UNL     1      -2.324   0.475   0.000  0.00  0.00    -0.245 OA
ATOM     15  O   UNL     1      -4.922  -4.024   0.000  0.00  0.00    -0.265 OA
ATOM     16  N   UNL     1      -7.520  -2.525   0.000  0.00  0.00    -0.237 NA
ATOM     17  C   UNL     1      -8.819  -1.775   0.000  0.00  0.00    +0.089 A 
ATOM     18  C   UNL     1     -10.118  -2.525   0.000  0.00  0.00    +0.033 A 
ATOM     19  C   UNL     1     -11.417  -1.775   0.000  0.00  0.00    -0.045 A 
ATOM     20  C   UNL     1     -12.716  -2.525   0.000  0.00  0.00    +0.044 C 
ATOM     21  C   UNL     1     -11.417  -0.275   0.000  0.00  0.00    -0.045 A 
ATOM     22  C   UNL     1     -12.716   0.475   0.000  0.00  0.00    +0.044 C 
ATOM     23  C   UNL     1     -10.118   0.475   0.000  0.00  0.00    +0.031 A 
ATOM     24  N   UNL     1      -4.922   0.475   0.000  0.00  0.00    -0.173 NA
ATOM     25  C   UNL     1      -8.819  -0.275   0.000  0.00  0.00    +0.069 A 
ENDROOT
BRANCH   1   2
ATOM      2  C   UNL     1      -7.520   1.976   0.000  0.00  0.00    +0.165 C 
BRANCH   2   3
ATOM      3  C   UNL     1      -8.819   2.725   0.000  0.00  0.00    +0.253 C 
BRANCH   3   4
ATOM      4  O   UNL     1     -10.118   1.976   0.000  0.00  0.00    -0.463 OA
BRANCH   4   5
ATOM      5  C   UNL     1     -11.417   2.725   0.000  0.00  0.00    +0.304 C 
ATOM      6  C   UNL     1     -11.417   4.226   0.000  0.00  0.00    +0.136 C 
ATOM      7  O   UNL     1     -12.716   1.976   0.000  0.00  0.00    -0.251 OA
ENDBRANCH   4   5
ENDBRANCH   3   4
ENDBRANCH   2   3
ENDBRANCH   1   2
TORSDOF 4