REMARK  Name = 30813
REMARK  2 active torsions:
REMARK  status: ('A' for Active; 'I' for Inactive)
REMARK    1  A    between atoms: N_4  and  C_16
REMARK    2  A    between atoms: C_14  and  C_15
REMARK                            x       y       z     vdW  Elec       q    Type
REMARK                         _______ _______ _______ _____ _____    ______ ____
ROOT
ATOM      1  N   UNL     1      -3.321   1.588   0.000  0.00  0.00    -0.022 NA
ATOM      2  N   UNL     1      -3.451   0.094   0.000  0.00  0.00    -0.039 NA
ATOM      3  N   UNL     1      -2.070  -0.492   0.000  0.00  0.00    -0.193 N 
ATOM     10  C   UNL     1      -1.086   0.640   0.000  0.00  0.00    +0.187 A 
ATOM     21  N   UNL     1      -1.859   1.926   0.000  0.00  0.00    -0.108 NA
ENDROOT
BRANCH  10  11
ATOM     11  C   UNL     1       0.408   0.510   0.000  0.00  0.00    +0.029 A 
ATOM     12  C   UNL     1       1.042  -0.850   0.000  0.00  0.00    +0.012 A 
ATOM     13  C   UNL     1       2.537  -0.980   0.000  0.00  0.00    +0.001 A 
ATOM     14  C   UNL     1       3.397   0.249   0.000  0.00  0.00    +0.008 A 
ATOM     15  C   UNL     1       2.763   1.608   0.000  0.00  0.00    -0.017 A 
ATOM     16  C   UNL     1       3.623   2.837   0.000  0.00  0.00    +0.008 A 
ATOM     17  C   UNL     1       2.988   4.197   0.000  0.00  0.00    +0.001 A 
ATOM     18  C   UNL     1       1.494   4.327   0.000  0.00  0.00    +0.001 A 
ATOM     19  C   UNL     1       0.634   3.098   0.000  0.00  0.00    +0.009 A 
ATOM     20  C   UNL     1       1.268   1.739   0.000  0.00  0.00    -0.007 A 
ENDBRANCH  10  11
BRANCH   3   4
ATOM      4  C   UNL     1      -1.732  -1.954   0.000  0.00  0.00    +0.069 A 
ATOM      5  C   UNL     1      -2.829  -2.977   0.000  0.00  0.00    +0.028 A 
ATOM      6  C   UNL     1      -2.491  -4.438   0.000  0.00  0.00    +0.002 A 
ATOM      7  C   UNL     1      -1.057  -4.877   0.000  0.00  0.00    +0.000 A 
ATOM      8  C   UNL     1       0.040  -3.853   0.000  0.00  0.00    +0.002 A 
ATOM      9  C   UNL     1      -0.298  -2.392   0.000  0.00  0.00    +0.028 A 
ENDBRANCH   3   4
TORSDOF 2