REMARK  Name = 305798
REMARK  6 active torsions:
REMARK  status: ('A' for Active; 'I' for Inactive)
REMARK    1  A    between atoms: C_1  and  C_7
REMARK    2  A    between atoms: C_3  and  C_21
REMARK    3  A    between atoms: C_5  and  C_13
REMARK    4  A    between atoms: C_7  and  C_8
REMARK    5  A    between atoms: C_7  and  O_20
REMARK    6  A    between atoms: C_16  and  C_25
REMARK                            x       y       z     vdW  Elec       q    Type
REMARK                         _______ _______ _______ _____ _____    ______ ____
ROOT
ATOM      1  C   UNL     1       0.312  -0.128   0.000  0.00  0.00    -0.014 A 
ATOM     12  C   UNL     1       0.962   0.247   0.000  0.00  0.00    +0.034 A 
ATOM     13  C   UNL     1       1.611  -0.128   0.000  0.00  0.00    +0.072 A 
ATOM     24  N   UNL     1       1.611  -0.877   0.000  0.00  0.00    -0.243 NA
ATOM     25  C   UNL     1       0.962  -1.252   0.000  0.00  0.00    +0.145 A 
ATOM     30  C   UNL     1       0.312  -0.877   0.000  0.00  0.00    +0.038 A 
ENDROOT
BRANCH  13  14
ATOM     14  C   UNL     1       2.261   0.247   0.000  0.00  0.00    +0.000 A 
ATOM     15  C   UNL     1       2.261   0.997   0.000  0.00  0.00    +0.010 A 
ATOM     16  C   UNL     1       2.910   1.372   0.000  0.00  0.00    +0.013 A 
ATOM     17  C   UNL     1       3.560   0.997   0.000  0.00  0.00    +0.055 A 
ATOM     22  C   UNL     1       3.560   0.247   0.000  0.00  0.00    +0.013 A 
ATOM     23  C   UNL     1       2.910  -0.128   0.000  0.00  0.00    +0.010 A 
BRANCH  17  18
ATOM     18  C   UNL     1       4.209   1.372   0.000  0.00  0.00    +0.417 C 
ATOM     19  F   UNL     1       4.858   1.748   0.000  0.00  0.00    -0.166 F 
ATOM     20  F   UNL     1       4.584   0.723   0.000  0.00  0.00    -0.166 F 
ATOM     21  F   UNL     1       3.833   2.022   0.000  0.00  0.00    -0.166 F 
ENDBRANCH  17  18
ENDBRANCH  13  14
BRANCH  25  26
ATOM     26  C   UNL     1       0.961  -2.002   0.000  0.00  0.00    +0.434 C 
ATOM     27  F   UNL     1       1.711  -2.003   0.000  0.00  0.00    -0.164 F 
ATOM     28  F   UNL     1       0.960  -2.752   0.000  0.00  0.00    -0.164 F 
ATOM     29  F   UNL     1       0.211  -2.002   0.000  0.00  0.00    -0.164 F 
ENDBRANCH  25  26
BRANCH   1   2
ATOM      2  C   UNL     1      -0.338   0.247   0.000  0.00  0.00    +0.161 C 
BRANCH   2   5
ATOM      5  C   UNL     1      -0.987  -0.128   0.000  0.00  0.00    +0.087 C 
ATOM      6  N   UNL     1      -1.637   0.247   0.000  0.00  0.00    -0.311 NA
ATOM      7  H   UNL     1      -1.637   1.267   0.000  0.00  0.00    +0.122 HD
ATOM      8  C   UNL     1      -2.286  -0.128   0.000  0.00  0.00    +0.081 C 
ATOM      9  C   UNL     1      -2.286  -0.877   0.000  0.00  0.00    +0.015 C 
ATOM     10  C   UNL     1      -1.637  -1.252   0.000  0.00  0.00    +0.003 C 
ATOM     11  C   UNL     1      -0.987  -0.877   0.000  0.00  0.00    +0.021 C 
ENDBRANCH   2   5
BRANCH   2   3
ATOM      3  O   UNL     1      -0.338   0.997   0.000  0.00  0.00    -0.386 OA
ATOM      4  H   UNL     1       0.502   1.482   0.000  0.00  0.00    +0.210 HD
ENDBRANCH   2   3
ENDBRANCH   1   2
TORSDOF 6