REMARK  Name = 30625
REMARK  18 active torsions:
REMARK  status: ('A' for Active; 'I' for Inactive)
REMARK    1  A    between atoms: C_2  and  C_3
REMARK    2  A    between atoms: C_2  and  C_18
REMARK    3  A    between atoms: C_2  and  O_19
REMARK    4  A    between atoms: C_3  and  O_21
REMARK    5  A    between atoms: C_3  and  C_22
REMARK    6  A    between atoms: C_3  and  C_29
REMARK    7  A    between atoms: O_4  and  C_22
REMARK    8  A    between atoms: O_4  and  C_28
REMARK    9  A    between atoms: O_7  and  C_11
REMARK   10  A    between atoms: O_7  and  C_24
REMARK   11  A    between atoms: C_8  and  C_24
REMARK   12  A    between atoms: C_8  and  C_26
REMARK   13  A    between atoms: C_9  and  C_27
REMARK   14  A    between atoms: C_14  and  C_28
REMARK   15  A    between atoms: O_19  and  C_20
REMARK   16  A    between atoms: C_29  and  O_30
REMARK   17  A    between atoms: C_29  and  C_31
REMARK   18  A    between atoms: C_29  and  C_32
REMARK                            x       y       z     vdW  Elec       q    Type
REMARK                         _______ _______ _______ _____ _____    ______ ____
ROOT
ATOM     14  C   UNL     1      -1.007  -1.533   0.000  0.00  0.00    +0.264 C 
ENDROOT
BRANCH  14  15
ATOM     15  C   UNL     1      -0.013  -2.655   0.000  0.00  0.00    -0.015 C 
ATOM     16  C   UNL     1      -0.336  -4.120   0.000  0.00  0.00    -0.007 C 
ATOM     17  C   UNL     1       0.957  -4.880   0.000  0.00  0.00    +0.112 C 
ATOM     18  N   UNL     1       2.079  -3.886   0.000  0.00  0.00    -0.289 NA
ATOM     19  C   UNL     1       3.572  -3.741   0.000  0.00  0.00    +0.089 C 
ATOM     20  C   UNL     1       3.896  -2.277   0.000  0.00  0.00    +0.062 C 
ATOM     21  C   UNL     1       2.603  -1.516   0.000  0.00  0.00    +0.199 C 
ATOM     29  C   UNL     1       1.480  -2.511   0.000  0.00  0.00    +0.127 C 
BRANCH  21  22
ATOM     22  O   UNL     1       2.458  -0.023   0.000  0.00  0.00    -0.456 OA
BRANCH  22  23
ATOM     23  C   UNL     1       3.812   0.624   0.000  0.00  0.00    +0.335 C 
ATOM     24  O   UNL     1       5.049  -0.225   0.000  0.00  0.00    -0.245 OA
BRANCH  23  25
ATOM     25  C   UNL     1       3.929   2.119   0.000  0.00  0.00    +0.029 C 
ATOM     26  C   UNL     1       5.282   2.766   0.000  0.00  0.00    +0.051 C 
ATOM     27  C   UNL     1       2.692   2.968   0.000  0.00  0.00    -0.020 C 
ATOM     28  C   UNL     1       1.339   2.321   0.000  0.00  0.00    +0.036 C 
ENDBRANCH  23  25
ENDBRANCH  22  23
ENDBRANCH  21  22
ENDBRANCH  14  15
BRANCH  14  13
ATOM     13  O   UNL     1      -2.477  -1.833   0.000  0.00  0.00    -0.458 OA
BRANCH  13  11
ATOM     11  C   UNL     1      -3.471  -0.710   0.000  0.00  0.00    +0.345 C 
ATOM     12  O   UNL     1      -4.941  -1.010   0.000  0.00  0.00    -0.247 OA
BRANCH  11   5
ATOM      5  C   UNL     1      -2.757   0.609   0.000  0.00  0.00    +0.216 C 
BRANCH   5   6
ATOM      6  C   UNL     1      -1.478   1.394   0.000  0.00  0.00    +0.102 C 
ATOM      7  C   UNL     1      -0.694   0.115   0.000  0.00  0.00    +0.044 C 
ATOM      8  C   UNL     1      -0.200   2.178   0.000  0.00  0.00    +0.044 C 
BRANCH   6   9
ATOM      9  O   UNL     1      -2.263   2.672   0.000  0.00  0.00    -0.386 OA
ATOM     10  H   UNL     1      -1.800   3.525   0.000  0.00  0.00    +0.210 HD
ENDBRANCH   6   9
ENDBRANCH   5   6
BRANCH   5   1
ATOM      1  C   UNL     1      -4.075   1.324   0.000  0.00  0.00    +0.160 C 
ATOM      4  C   UNL     1      -4.790   0.005   0.000  0.00  0.00    +0.041 C 
BRANCH   1   2
ATOM      2  O   UNL     1      -3.360   2.643   0.000  0.00  0.00    -0.377 OA
ATOM      3  C   UNL     1      -4.145   3.921   0.000  0.00  0.00    +0.194 C 
ENDBRANCH   1   2
ENDBRANCH   5   1
BRANCH   5  30
ATOM     30  O   UNL     1      -1.438  -0.106   0.000  0.00  0.00    -0.373 OA
ATOM     31  H   UNL     1      -1.412  -1.076   0.000  0.00  0.00    +0.211 HD
ENDBRANCH   5  30
ENDBRANCH  11   5
ENDBRANCH  13  11
ENDBRANCH  14  13
TORSDOF 12