REMARK  Name = 305743
REMARK  2 active torsions:
REMARK  status: ('A' for Active; 'I' for Inactive)
REMARK    1  A    between atoms: C_3  and  C_5
REMARK    2  A    between atoms: C_8  and  C_10
REMARK                            x       y       z     vdW  Elec       q    Type
REMARK                         _______ _______ _______ _____ _____    ______ ____
ROOT
ATOM      6  C   UNL     1      -8.352   1.433   0.000  0.00  0.00    +0.202 A 
ATOM      7  N   UNL     1      -9.102   0.134   0.000  0.00  0.00    -0.056 NA
ATOM      8  O   UNL     1      -8.098  -0.981   0.000  0.00  0.00    -0.332 OA
ATOM      9  C   UNL     1      -6.728  -0.371   0.000  0.00  0.00    +0.260 A 
ATOM     17  N   UNL     1      -6.885   1.121   0.000  0.00  0.00    -0.187 NA
ENDROOT
BRANCH   9  10
ATOM     10  C   UNL     1      -5.429  -1.121   0.000  0.00  0.00    +0.058 A 
ATOM     11  C   UNL     1      -5.429  -2.621   0.000  0.00  0.00    +0.053 A 
ATOM     12 CL   UNL     1      -6.728  -3.371   0.000  0.00  0.00    -0.083 Cl
ATOM     13  C   UNL     1      -4.130  -3.371   0.000  0.00  0.00    +0.021 A 
ATOM     14  C   UNL     1      -2.831  -2.621   0.000  0.00  0.00    +0.001 A 
ATOM     15  C   UNL     1      -2.831  -1.121   0.000  0.00  0.00    +0.001 A 
ATOM     16  C   UNL     1      -4.130  -0.371   0.000  0.00  0.00    +0.015 A 
ENDBRANCH   9  10
BRANCH   6   5
ATOM      1  C   UNL     1      -8.691   5.387   0.000  0.00  0.00    +0.111 A 
ATOM      2  N   UNL     1     -10.182   5.544   0.000  0.00  0.00    -0.263 NA
ATOM      3  C   UNL     1     -11.064   4.330   0.000  0.00  0.00    +0.111 A 
ATOM      4  C   UNL     1     -10.454   2.960   0.000  0.00  0.00    +0.031 A 
ATOM      5  C   UNL     1      -8.962   2.803   0.000  0.00  0.00    +0.025 A 
ATOM     18  C   UNL     1      -8.081   4.017   0.000  0.00  0.00    +0.031 A 
ENDBRANCH   6   5
TORSDOF 2