REMARK  Name = 299968
REMARK  8 active torsions:
REMARK  status: ('A' for Active; 'I' for Inactive)
REMARK    1  A    between atoms: C_2  and  C_14
REMARK    2  A    between atoms: C_2  and  C_15
REMARK    3  A    between atoms: C_5  and  C_8
REMARK    4  A    between atoms: C_8  and  C_10
REMARK    5  A    between atoms: N_9  and  O_16
REMARK    6  A    between atoms: C_10  and  O_11
REMARK    7  A    between atoms: O_11  and  C_17
REMARK    8  A    between atoms: C_17  and  C_18
REMARK                            x       y       z     vdW  Elec       q    Type
REMARK                         _______ _______ _______ _____ _____    ______ ____
ROOT
ATOM      1  N   UNL     1      -6.193  -6.585   0.000  0.00  0.00    -0.159 NA
ATOM      2  N   UNL     1      -6.036  -8.077   0.000  0.00  0.00    -0.242 N 
ATOM      3  H   UNL     1      -6.768  -8.736   0.000  0.00  0.00    +0.171 HD
ATOM      4  C   UNL     1      -4.569  -8.389   0.000  0.00  0.00    +0.121 C 
ATOM      5  C   UNL     1      -3.199  -8.999   0.000  0.00  0.00    +0.057 C 
ATOM      6  C   UNL     1      -5.032  -9.816   0.000  0.00  0.00    +0.057 C 
ATOM      7  N   UNL     1      -3.819  -7.090   0.000  0.00  0.00    -0.294 N 
ATOM      8  C   UNL     1      -2.449  -6.480   0.000  0.00  0.00    +0.088 A 
ATOM     18  C   UNL     1      -2.605  -4.988   0.000  0.00  0.00    +0.077 A 
ATOM     19  S   UNL     1      -4.072  -4.676   0.000  0.00  0.00    -0.056 S 
ATOM     20  C   UNL     1      -4.822  -5.975   0.000  0.00  0.00    +0.192 A 
ENDROOT
BRANCH   8   9
ATOM      9  C   UNL     1      -1.149  -7.230   0.000  0.00  0.00    +0.210 C 
ATOM     10  N   UNL     1      -1.149  -8.730   0.000  0.00  0.00    -0.078 NA
BRANCH  10  11
ATOM     11  O   UNL     1       0.150  -9.480   0.000  0.00  0.00    -0.409 OA
ATOM     12  H   UNL     1       0.150 -10.417   0.000  0.00  0.00    +0.328 HD
ENDBRANCH  10  11
BRANCH   9  13
ATOM     13  C   UNL     1       0.150  -6.480   0.000  0.00  0.00    +0.363 C 
ATOM     14  O   UNL     1       1.449  -7.230   0.000  0.00  0.00    -0.243 OA
BRANCH  13  15
ATOM     15  O   UNL     1       0.150  -4.980   0.000  0.00  0.00    -0.460 OA
BRANCH  15  16
ATOM     16  C   UNL     1       1.449  -4.230   0.000  0.00  0.00    +0.229 C 
ATOM     17  C   UNL     1       1.449  -2.730   0.000  0.00  0.00    +0.048 C 
ENDBRANCH  15  16
ENDBRANCH  13  15
ENDBRANCH   9  13
ENDBRANCH   8   9
TORSDOF 5