REMARK  Name = 308835
REMARK  5 active torsions:
REMARK  status: ('A' for Active; 'I' for Inactive)
REMARK    1  A    between atoms: C_1  and  N_13
REMARK    2  A    between atoms: C_2  and  C_36
REMARK    3  A    between atoms: C_4  and  C_7
REMARK    4  A    between atoms: C_9  and  C_35
REMARK    5  A    between atoms: C_10  and  N_22
REMARK                            x       y       z     vdW  Elec       q    Type
REMARK                         _______ _______ _______ _____ _____    ______ ____
ROOT
ATOM      1  C   UNL     1     -14.367  -3.390   0.000  0.00  0.00    +0.047 A 
ATOM     13  C   UNL     1     -13.617  -2.091   0.000  0.00  0.00    +0.025 A 
ATOM     14  C   UNL     1     -12.117  -2.091   0.000  0.00  0.00    +0.010 A 
ATOM     15  C   UNL     1     -11.367  -3.390   0.000  0.00  0.00    -0.018 A 
ATOM     34  C   UNL     1     -12.117  -4.689   0.000  0.00  0.00    +0.013 A 
ATOM     35  C   UNL     1     -13.617  -4.689   0.000  0.00  0.00    -0.028 A 
ATOM     36  C   UNL     1     -14.367  -5.988   0.000  0.00  0.00    +0.046 C 
ENDROOT
BRANCH   1   2
ATOM      2  N   UNL     1     -15.867  -3.390   0.000  0.00  0.00    -0.210 N 
ATOM      3  C   UNL     1     -16.748  -4.604   0.000  0.00  0.00    +0.233 C 
ATOM      4  O   UNL     1     -16.285  -6.030   0.000  0.00  0.00    -0.274 OA
ATOM      5  C   UNL     1     -18.175  -4.140   0.000  0.00  0.00    +0.056 C 
ATOM      6  C   UNL     1     -18.175  -5.640   0.000  0.00  0.00    +0.016 C 
ATOM      7  C   UNL     1     -19.601  -6.104   0.000  0.00  0.00    +0.001 C 
ATOM      8  C   UNL     1     -20.483  -4.890   0.000  0.00  0.00    +0.001 C 
ATOM      9  C   UNL     1     -19.601  -3.677   0.000  0.00  0.00    +0.016 C 
ATOM     10  C   UNL     1     -18.175  -2.640   0.000  0.00  0.00    +0.113 C 
ATOM     11  C   UNL     1     -16.748  -2.177   0.000  0.00  0.00    +0.227 C 
ATOM     12  O   UNL     1     -16.285  -0.750   0.000  0.00  0.00    -0.275 OA
ENDBRANCH   1   2
BRANCH  15  16
ATOM     16  C   UNL     1      -9.867  -3.390   0.000  0.00  0.00    -0.018 A 
ATOM     17  C   UNL     1      -9.117  -2.091   0.000  0.00  0.00    +0.010 A 
ATOM     18  C   UNL     1      -7.617  -2.091   0.000  0.00  0.00    +0.025 A 
ATOM     19  C   UNL     1      -6.867  -3.390   0.000  0.00  0.00    +0.047 A 
ATOM     31  C   UNL     1      -7.617  -4.689   0.000  0.00  0.00    -0.028 A 
ATOM     32  C   UNL     1      -6.867  -5.988   0.000  0.00  0.00    +0.046 C 
ATOM     33  C   UNL     1      -9.117  -4.689   0.000  0.00  0.00    +0.013 A 
BRANCH  19  20
ATOM     20  N   UNL     1      -5.367  -3.390   0.000  0.00  0.00    -0.210 N 
ATOM     21  C   UNL     1      -4.485  -2.177   0.000  0.00  0.00    +0.227 C 
ATOM     22  O   UNL     1      -4.948  -0.750   0.000  0.00  0.00    -0.275 OA
ATOM     23  C   UNL     1      -3.058  -2.640   0.000  0.00  0.00    +0.113 C 
ATOM     24  C   UNL     1      -3.058  -4.140   0.000  0.00  0.00    +0.056 C 
ATOM     25  C   UNL     1      -1.632  -3.677   0.000  0.00  0.00    +0.016 C 
ATOM     26  C   UNL     1      -0.750  -4.890   0.000  0.00  0.00    +0.001 C 
ATOM     27  C   UNL     1      -1.632  -6.104   0.000  0.00  0.00    +0.001 C 
ATOM     28  C   UNL     1      -3.058  -5.640   0.000  0.00  0.00    +0.016 C 
ATOM     29  C   UNL     1      -4.485  -4.604   0.000  0.00  0.00    +0.233 C 
ATOM     30  O   UNL     1      -4.948  -6.030   0.000  0.00  0.00    -0.274 OA
ENDBRANCH  19  20
ENDBRANCH  15  16
TORSDOF 3