REMARK  Name = 300540
REMARK  2 active torsions:
REMARK  status: ('A' for Active; 'I' for Inactive)
REMARK    1  A    between atoms: C_9  and  C_10
REMARK    2  A    between atoms: C_11  and  O_23
REMARK                            x       y       z     vdW  Elec       q    Type
REMARK                         _______ _______ _______ _____ _____    ______ ____
ROOT
ATOM      9  C   UNL     1      -3.647  -5.766   0.000  0.00  0.00    +0.152 C 
ATOM     10  N   UNL     1      -3.958  -7.234   0.000  0.00  0.00    -0.330 N 
ATOM     11  H   UNL     1      -2.844  -8.237   0.000  0.00  0.00    +0.147 HD
ATOM     12  C   UNL     1      -5.385  -7.697   0.000  0.00  0.00    +0.052 A 
ATOM     13  C   UNL     1      -5.697  -9.164   0.000  0.00  0.00    +0.025 A 
ATOM     14  C   UNL     1      -7.123  -9.628   0.000  0.00  0.00    +0.002 A 
ATOM     15  C   UNL     1      -8.238  -8.624   0.000  0.00  0.00    +0.002 A 
ATOM     16  C   UNL     1      -7.926  -7.157   0.000  0.00  0.00    +0.028 A 
ATOM     17  C   UNL     1      -6.500  -6.693   0.000  0.00  0.00    +0.067 A 
ATOM     18  N   UNL     1      -6.188  -5.226   0.000  0.00  0.00    -0.316 N 
ATOM     19  C   UNL     1      -7.070  -4.013   0.000  0.00  0.00    +0.092 A 
ATOM     20  C   UNL     1      -6.188  -2.799   0.000  0.00  0.00    +0.020 A 
ATOM     21  C   UNL     1      -4.761  -3.263   0.000  0.00  0.00    +0.025 A 
ATOM     22  C   UNL     1      -4.761  -4.763   0.000  0.00  0.00    +0.049 A 
ENDROOT
BRANCH   9   3
ATOM      1  C   UNL     1      -0.481  -3.372   0.000  0.00  0.00    +0.043 A 
ATOM      2  C   UNL     1      -1.908  -3.836   0.000  0.00  0.00    +0.029 A 
ATOM      3  C   UNL     1      -2.220  -5.303   0.000  0.00  0.00    +0.023 A 
ATOM      4  C   UNL     1      -1.105  -6.307   0.000  0.00  0.00    +0.140 A 
ATOM      7  C   UNL     1       0.321  -5.843   0.000  0.00  0.00    +0.084 A 
ATOM      8 CL   UNL     1       1.436  -6.847   0.000  0.00  0.00    -0.080 Cl
ATOM     23  C   UNL     1       0.633  -4.376   0.000  0.00  0.00    +0.043 A 
ATOM     24 CL   UNL     1      -0.170  -1.905   0.000  0.00  0.00    -0.083 Cl
BRANCH   4   5
ATOM      5  O   UNL     1      -1.417  -7.774   0.000  0.00  0.00    -0.505 OA
ATOM      6  H   UNL     1      -2.308  -8.063   0.000  0.00  0.00    +0.292 HD
ENDBRANCH   4   5
ENDBRANCH   9   3
TORSDOF 2