REMARK  Name = 309401
REMARK  3 active torsions:
REMARK  status: ('A' for Active; 'I' for Inactive)
REMARK    1  A    between atoms: C_5  and  C_22
REMARK    2  A    between atoms: C_16  and  N_23
REMARK    3  A    between atoms: N_19  and  C_22
REMARK                            x       y       z     vdW  Elec       q    Type
REMARK                         _______ _______ _______ _____ _____    ______ ____
ROOT
ATOM      1 CL   UNL     1      -4.340 -10.776   0.000  0.00  0.00    -0.145 Cl
ATOM      2  H   UNL     1      -3.010 -10.776   0.000  0.00  0.00    +0.145 HD
ENDROOT
TORSDOF 0