REMARK  Name = 300289
REMARK  4 active torsions:
REMARK  status: ('A' for Active; 'I' for Inactive)
REMARK    1  A    between atoms: C_16  and  N_21
REMARK    2  A    between atoms: N_17  and  C_24
REMARK    3  A    between atoms: N_20  and  C_25
REMARK    4  A    between atoms: C_24  and  C_25
REMARK                            x       y       z     vdW  Elec       q    Type
REMARK                         _______ _______ _______ _____ _____    ______ ____
ROOT
ATOM      1  C   UNL     1       2.748   9.731   0.000  0.00  0.00    +0.014 A 
ATOM      2  C   UNL     1       3.498   8.432   0.000  0.00  0.00    +0.048 A 
ATOM      3  C   UNL     1       2.748   7.133   0.000  0.00  0.00    +0.007 A 
ATOM      4  C   UNL     1       3.498   5.834   0.000  0.00  0.00    +0.054 A 
ATOM      5  C   UNL     1       2.748   4.535   0.000  0.00  0.00    +0.098 A 
ATOM      6  C   UNL     1       1.248   4.535   0.000  0.00  0.00    +0.274 A 
ATOM     10  C   UNL     1       0.498   5.834   0.000  0.00  0.00    +0.092 A 
ATOM     11  C   UNL     1       4.998   5.834   0.000  0.00  0.00    +0.262 A 
ATOM     12  O   UNL     1       5.748   4.535   0.000  0.00  0.00    -0.267 OA
ATOM     13  N   UNL     1       5.748   7.133   0.000  0.00  0.00    -0.274 N 
ATOM     21  C   UNL     1       1.248   7.133   0.000  0.00  0.00    -0.010 A 
ATOM     22  C   UNL     1       0.498   8.432   0.000  0.00  0.00    +0.009 A 
ATOM     23  C   UNL     1       4.998   8.432   0.000  0.00  0.00    +0.262 A 
ATOM     24  O   UNL     1       5.748   9.731   0.000  0.00  0.00    -0.267 OA
ATOM     25  C   UNL     1       1.248   9.731   0.000  0.00  0.00    +0.001 A 
ENDROOT
BRANCH   6   7
ATOM      7  N   UNL     1       0.498   3.236   0.000  0.00  0.00    +0.080 N 
ATOM      8  O   UNL     1       1.248   1.937   0.000  0.00  0.00    +0.041 OA
ATOM      9  O   UNL     1      -1.002   3.236   0.000  0.00  0.00    -0.576 OA
ENDBRANCH   6   7
BRANCH  13  14
ATOM     14  C   UNL     1       7.248   7.133   0.000  0.00  0.00    +0.144 C 
BRANCH  14  15
ATOM     15  C   UNL     1       7.998   8.432   0.000  0.00  0.00    +0.106 C 
BRANCH  15  16
ATOM     16  N   UNL     1       9.498   8.432   0.000  0.00  0.00    -0.301 NA
ATOM     17  C   UNL     1      10.379   7.219   0.000  0.00  0.00    +0.084 C 
ATOM     18  C   UNL     1      11.806   7.682   0.000  0.00  0.00    +0.017 C 
ATOM     19  C   UNL     1      11.806   9.182   0.000  0.00  0.00    +0.017 C 
ATOM     20  C   UNL     1      10.379   9.646   0.000  0.00  0.00    +0.084 C 
ENDBRANCH  15  16
ENDBRANCH  14  15
ENDBRANCH  13  14
TORSDOF 4