REMARK  Name = 309971
REMARK  5 active torsions:
REMARK  status: ('A' for Active; 'I' for Inactive)
REMARK    1  A    between atoms: C_1  and  N_11
REMARK    2  A    between atoms: C_3  and  S_7
REMARK    3  A    between atoms: S_7  and  N_10
REMARK    4  A    between atoms: N_10  and  C_14
REMARK    5  A    between atoms: N_10  and  C_15
REMARK                            x       y       z     vdW  Elec       q    Type
REMARK                         _______ _______ _______ _____ _____    ______ ____
ROOT
ATOM      1  C   UNL     1      -5.250  -2.049   0.000  0.00  0.00    +0.101 A 
ATOM      5  C   UNL     1      -6.750  -2.049   0.000  0.00  0.00    +0.030 A 
ATOM      6  C   UNL     1      -7.500  -3.348   0.000  0.00  0.00    +0.002 A 
ATOM      7  C   UNL     1      -6.750  -4.647   0.000  0.00  0.00    +0.002 A 
ATOM      8  C   UNL     1      -5.250  -4.647   0.000  0.00  0.00    +0.031 A 
ATOM      9  C   UNL     1      -4.500  -3.348   0.000  0.00  0.00    +0.131 A 
ENDROOT
BRANCH   1   2
ATOM      2  N   UNL     1      -4.500  -0.750   0.000  0.00  0.00    -0.195 NA
ATOM      3  C   UNL     1      -3.000  -0.750   0.000  0.00  0.00    +0.041 C 
ATOM      4  S   UNL     1      -1.500  -0.750   0.000  0.00  0.00    +0.021 S 
ENDBRANCH   1   2
BRANCH   9  10
ATOM     10  S   UNL     1      -3.000  -3.348   0.000  0.00  0.00    +0.062 S 
ATOM     14  O   UNL     1      -3.000  -4.848   0.000  0.00  0.00    -0.153 OA
ATOM     15  O   UNL     1      -3.000  -1.848   0.000  0.00  0.00    -0.153 OA
BRANCH  10  11
ATOM     11  N   UNL     1      -1.500  -3.348   0.000  0.00  0.00    -0.183 NA
ATOM     12  C   UNL     1      -0.750  -2.049   0.000  0.00  0.00    +0.131 C 
ATOM     13  C   UNL     1      -0.750  -4.647   0.000  0.00  0.00    +0.131 C 
ENDBRANCH  10  11
ENDBRANCH   9  10
TORSDOF 3