REMARK  Name = 30041
REMARK  2 active torsions:
REMARK  status: ('A' for Active; 'I' for Inactive)
REMARK    1  A    between atoms: C_1  and  C_9
REMARK    2  A    between atoms: C_2  and  C_7
REMARK                            x       y       z     vdW  Elec       q    Type
REMARK                         _______ _______ _______ _____ _____    ______ ____
ROOT
ATOM      1  C   UNL     1      -2.223  -3.650   0.000  0.00  0.00    -0.035 A 
ATOM      2  C   UNL     1      -2.223  -2.150   0.000  0.00  0.00    +0.044 C 
ATOM      3  C   UNL     1      -3.522  -4.399   0.000  0.00  0.00    +0.024 A 
ATOM      4  C   UNL     1      -3.522  -5.899   0.000  0.00  0.00    +0.111 A 
ATOM      5  N   UNL     1      -2.223  -6.649   0.000  0.00  0.00    -0.262 NA
ATOM      6  C   UNL     1      -0.924  -5.899   0.000  0.00  0.00    +0.124 A 
ATOM      7  C   UNL     1      -0.924  -4.399   0.000  0.00  0.00    +0.057 A 
ENDROOT
BRANCH   7   8
ATOM      8  C   UNL     1       0.375  -3.650   0.000  0.00  0.00    +0.243 C 
ATOM      9  N   UNL     1       0.375  -2.150   0.000  0.00  0.00    -0.325 N 
ATOM     10  H   UNL     1      -0.478  -1.657   0.000  0.00  0.00    +0.145 HD
ATOM     11  H   UNL     1       1.228  -1.657   0.000  0.00  0.00    +0.145 HD
ATOM     12  O   UNL     1       1.674  -4.399   0.000  0.00  0.00    -0.270 OA
ENDBRANCH   7   8
TORSDOF 1