REMARK  Name = 311165
REMARK  4 active torsions:
REMARK  status: ('A' for Active; 'I' for Inactive)
REMARK    1  A    between atoms: C_5  and  C_14
REMARK    2  A    between atoms: C_5  and  C_15
REMARK    3  A    between atoms: C_6  and  C_13
REMARK    4  A    between atoms: N_12  and  C_16
REMARK                            x       y       z     vdW  Elec       q    Type
REMARK                         _______ _______ _______ _____ _____    ______ ____
ROOT
ATOM      1  C   UNL     1      -0.702  -5.315   0.000  0.00  0.00    +0.339 C 
ATOM      2  O   UNL     1      -0.239  -6.741   0.000  0.00  0.00    -0.429 OA
ATOM      3  C   UNL     1      -1.452  -7.623   0.000  0.00  0.00    +0.253 C 
ATOM      4  C   UNL     1      -2.751  -8.373   0.000  0.00  0.00    +0.219 C 
ATOM      5  C   UNL     1      -2.751  -9.873   0.000  0.00  0.00    +0.100 C 
ATOM      6  C   UNL     1      -3.501 -11.172   0.000  0.00  0.00    +0.044 C 
ATOM      7  C   UNL     1      -1.452 -10.623   0.000  0.00  0.00    +0.044 C 
ATOM      8  C   UNL     1      -0.153  -9.873   0.000  0.00  0.00    -0.027 C 
ATOM      9  C   UNL     1       0.360 -11.282   0.000  0.00  0.00    +0.011 C 
ATOM     10  C   UNL     1       1.324  -9.612   0.000  0.00  0.00    +0.011 C 
ATOM     11  O   UNL     1      -4.050  -9.123   0.000  0.00  0.00    -0.359 OA
ATOM     12  C   UNL     1      -0.153  -8.373   0.000  0.00  0.00    +0.084 C 
ATOM     13  N   UNL     1      -2.666  -6.741   0.000  0.00  0.00    -0.132 NA
ATOM     14  N   UNL     1      -2.202  -5.315   0.000  0.00  0.00    -0.093 NA
ATOM     15  N   UNL     1       0.179  -4.101   0.000  0.00  0.00    -0.194 NA
ENDROOT
BRANCH  15  16
ATOM     16  C   UNL     1       1.671  -4.258   0.000  0.00  0.00    +0.069 A 
ATOM     17  C   UNL     1       2.281  -5.628   0.000  0.00  0.00    +0.028 A 
ATOM     18  C   UNL     1       3.773  -5.785   0.000  0.00  0.00    +0.002 A 
ATOM     19  C   UNL     1       4.655  -4.572   0.000  0.00  0.00    +0.000 A 
ATOM     20  C   UNL     1       4.045  -3.201   0.000  0.00  0.00    +0.002 A 
ATOM     21  C   UNL     1       2.553  -3.044   0.000  0.00  0.00    +0.028 A 
ENDBRANCH  15  16
TORSDOF 1