REMARK  Name = 303800
REMARK  6 active torsions:
REMARK  status: ('A' for Active; 'I' for Inactive)
REMARK    1  A    between atoms: C_1  and  C_8
REMARK    2  A    between atoms: C_3  and  O_5
REMARK    3  A    between atoms: O_5  and  C_7
REMARK    4  A    between atoms: C_8  and  C_9
REMARK    5  A    between atoms: C_9  and  C_10
REMARK    6  A    between atoms: C_10  and  O_12
REMARK                            x       y       z     vdW  Elec       q    Type
REMARK                         _______ _______ _______ _____ _____    ______ ____
ROOT
ATOM      1  C   UNL     1       3.165   5.243   0.000  0.00  0.00    +0.142 A 
ATOM      8  C   UNL     1       3.165   3.743   0.000  0.00  0.00    +0.114 A 
ATOM      9  C   UNL     1       1.738   3.280   0.000  0.00  0.00    +0.255 A 
ATOM     12  N   UNL     1       0.856   4.493   0.000  0.00  0.00    -0.040 NA
ATOM     13  O   UNL     1       1.738   5.707   0.000  0.00  0.00    -0.356 OA
ENDROOT
BRANCH   9  10
ATOM     10  O   UNL     1       1.275   1.853   0.000  0.00  0.00    -0.478 OA
ATOM     11  C   UNL     1      -0.193   1.541   0.000  0.00  0.00    +0.279 C 
ENDBRANCH   9  10
BRANCH   1   2
ATOM      2  C   UNL     1       4.378   6.125   0.000  0.00  0.00    +0.088 C 
BRANCH   2   3
ATOM      3  C   UNL     1       4.221   7.617   0.000  0.00  0.00    +0.128 C 
BRANCH   3   4
ATOM      4  C   UNL     1       5.435   8.498   0.000  0.00  0.00    +0.305 C 
ATOM      7  O   UNL     1       5.278   9.990   0.000  0.00  0.00    -0.251 OA
BRANCH   4   5
ATOM      5  O   UNL     1       6.805   7.888   0.000  0.00  0.00    -0.481 OA
ATOM      6  H   UNL     1       6.903   6.956   0.000  0.00  0.00    +0.295 HD
ENDBRANCH   4   5
ENDBRANCH   3   4
ENDBRANCH   2   3
ENDBRANCH   1   2
TORSDOF 5