REMARK  Name = 310113
REMARK  4 active torsions:
REMARK  status: ('A' for Active; 'I' for Inactive)
REMARK    1  A    between atoms: C_14  and  C_15
REMARK    2  A    between atoms: C_15  and  O_18
REMARK    3  A    between atoms: O_18  and  C_19
REMARK    4  A    between atoms: C_19  and  C_20
REMARK                            x       y       z     vdW  Elec       q    Type
REMARK                         _______ _______ _______ _____ _____    ______ ____
ROOT
ATOM      1  C   UNL     1       1.652   4.165   0.000  0.00  0.00    +0.005 C 
ATOM      2  C   UNL     1       1.652   2.665   0.000  0.00  0.00    +0.005 C 
ATOM      3  C   UNL     1       2.951   1.915   0.000  0.00  0.00    +0.037 C 
ATOM      4  C   UNL     1       4.250   2.665   0.000  0.00  0.00    -0.023 A 
ATOM      5  C   UNL     1       5.677   2.202   0.000  0.00  0.00    +0.075 A 
ATOM      6  C   UNL     1       6.287   0.831   0.000  0.00  0.00    +0.260 A 
ATOM      7  O   UNL     1       5.405  -0.382   0.000  0.00  0.00    -0.267 OA
ATOM      8  N   UNL     1       7.779   0.675   0.000  0.00  0.00    -0.301 N 
ATOM      9  H   UNL     1       8.389  -0.696   0.000  0.00  0.00    +0.171 HD
ATOM     10  C   UNL     1       8.660   1.888   0.000  0.00  0.00    +0.220 A 
ATOM     16  N   UNL     1       8.050   3.259   0.000  0.00  0.00    -0.216 NA
ATOM     17  C   UNL     1       6.558   3.415   0.000  0.00  0.00    +0.116 A 
ATOM     18  S   UNL     1       5.677   4.629   0.000  0.00  0.00    -0.073 S 
ATOM     19  C   UNL     1       4.250   4.165   0.000  0.00  0.00    -0.004 A 
ATOM     20  C   UNL     1       2.951   4.915   0.000  0.00  0.00    +0.043 C 
ENDROOT
BRANCH  10  11
ATOM     11  C   UNL     1      10.152   1.731   0.000  0.00  0.00    +0.375 C 
ATOM     12  O   UNL     1      11.034   2.945   0.000  0.00  0.00    -0.242 OA
BRANCH  11  13
ATOM     13  O   UNL     1      10.762   0.361   0.000  0.00  0.00    -0.459 OA
BRANCH  13  14
ATOM     14  C   UNL     1      12.254   0.204   0.000  0.00  0.00    +0.229 C 
ATOM     15  C   UNL     1      13.136   1.418   0.000  0.00  0.00    +0.048 C 
ENDBRANCH  13  14
ENDBRANCH  11  13
ENDBRANCH  10  11
TORSDOF 3