REMARK  Name = 310325
REMARK  3 active torsions:
REMARK  status: ('A' for Active; 'I' for Inactive)
REMARK    1  A    between atoms: C_6  and  N_24
REMARK    2  A    between atoms: C_10  and  C_31
REMARK    3  A    between atoms: C_16  and  C_27
REMARK                            x       y       z     vdW  Elec       q    Type
REMARK                         _______ _______ _______ _____ _____    ______ ____
ROOT
ATOM      7  N   UNL     1      -8.830  -3.265   0.000  0.00  0.00    -0.224 NA
ATOM      8  C   UNL     1      -7.460  -3.875   0.000  0.00  0.00    +0.169 C 
ATOM      9  N   UNL     1      -7.148  -5.343   0.000  0.00  0.00    -0.235 N 
ATOM     10  C   UNL     1      -8.151  -6.457   0.000  0.00  0.00    +0.261 C 
ATOM     11  O   UNL     1      -7.688  -7.884   0.000  0.00  0.00    -0.269 OA
ATOM     22  C   UNL     1      -5.656  -5.499   0.000  0.00  0.00    +0.075 C 
ATOM     23  C   UNL     1      -6.406  -6.798   0.000  0.00  0.00    +0.032 C 
ATOM     24  C   UNL     1      -5.656  -8.098   0.000  0.00  0.00    +0.002 C 
ATOM     25  C   UNL     1      -4.156  -8.098   0.000  0.00  0.00    +0.000 C 
ATOM     26  C   UNL     1      -3.406  -6.798   0.000  0.00  0.00    +0.002 C 
ATOM     27  C   UNL     1      -4.156  -5.499   0.000  0.00  0.00    +0.032 C 
ATOM     28  C   UNL     1      -5.046  -4.129   0.000  0.00  0.00    +0.010 C 
ATOM     29  C   UNL     1      -3.579  -3.817   0.000  0.00  0.00    +0.022 C 
ATOM     30  S   UNL     1      -6.160  -3.125   0.000  0.00  0.00    -0.057 S 
ENDROOT
BRANCH  10  12
ATOM     12  C   UNL     1      -9.619  -6.146   0.000  0.00  0.00    +0.094 A 
ATOM     13  S   UNL     1     -10.229  -4.775   0.000  0.00  0.00    -0.082 S 
ATOM     14  C   UNL     1     -11.720  -4.932   0.000  0.00  0.00    +0.021 A 
ATOM     15  C   UNL     1     -12.032  -6.399   0.000  0.00  0.00    +0.008 A 
ATOM     16  C   UNL     1     -13.459  -6.863   0.000  0.00  0.00    +0.010 A 
ATOM     17  C   UNL     1     -14.574  -5.859   0.000  0.00  0.00    +0.001 A 
ATOM     18  C   UNL     1     -14.262  -4.392   0.000  0.00  0.00    +0.001 A 
ATOM     19  C   UNL     1     -12.835  -3.928   0.000  0.00  0.00    +0.016 A 
ATOM     20  C   UNL     1     -10.733  -7.149   0.000  0.00  0.00    +0.068 A 
ATOM     21 CL   UNL     1     -10.576  -8.641   0.000  0.00  0.00    -0.082 Cl
ENDBRANCH  10  12
BRANCH   7   3
ATOM      1  C   UNL     1      -7.930   0.600   0.000  0.00  0.00    +0.022 A 
ATOM      2  C   UNL     1      -7.773  -0.892   0.000  0.00  0.00    +0.067 A 
ATOM      3  C   UNL     1      -8.987  -1.774   0.000  0.00  0.00    +0.088 A 
ATOM      4  C   UNL     1     -10.357  -1.163   0.000  0.00  0.00    -0.024 A 
ATOM      5  C   UNL     1     -11.570  -2.045   0.000  0.00  0.00    +0.046 C 
ATOM      6  C   UNL     1     -10.514   0.328   0.000  0.00  0.00    +0.005 A 
ATOM     31 CL   UNL     1      -6.403  -1.502   0.000  0.00  0.00    -0.081 Cl
ATOM     32  C   UNL     1      -9.300   1.210   0.000  0.00  0.00    +0.002 A 
ENDBRANCH   7   3
TORSDOF 2