REMARK  Name = 146268
REMARK  5 active torsions:
REMARK  status: ('A' for Active; 'I' for Inactive)
REMARK    1  A    between atoms: N_4  and  C1*_9
REMARK    2  A    between atoms: C2*_10  and  O2*_17
REMARK    3  A    between atoms: C3*_11  and  O3*_14
REMARK    4  A    between atoms: C4*_12  and  C5*_15
REMARK    5  A    between atoms: O5*_13  and  C5*_15
REMARK                            x       y       z     vdW  Elec       q    Type
REMARK                         _______ _______ _______ _____ _____    ______ ____
ROOT
ATOM     10  C1* UNL     1      -0.133  -0.380   0.000  0.00  0.00    +0.271 C 
ATOM     11  C2* UNL     1       0.536  -1.722   0.000  0.00  0.00    +0.196 C 
ATOM     14  C3* UNL     1      -0.534  -2.773   0.000  0.00  0.00    +0.178 C 
ATOM     17  C4* UNL     1      -1.864  -2.081   0.000  0.00  0.00    +0.177 C 
ATOM     21  O4* UNL     1      -1.616  -0.601   0.000  0.00  0.00    -0.344 OA
ENDROOT
BRANCH  10   9
ATOM      1  S   UNL     1      -1.744   2.151   0.000  0.00  0.00    -0.011 S 
ATOM      2  C   UNL     1      -0.246   2.216   0.000  0.00  0.00    +0.179 A 
ATOM      3  N   UNL     1       0.447   3.546   0.000  0.00  0.00    -0.300 N 
ATOM      4  H   UNL     1      -0.082   4.377   0.000  0.00  0.00    +0.171 HD
ATOM      5  C   UNL     1       1.946   3.612   0.000  0.00  0.00    +0.270 A 
ATOM      6  C   UNL     1       2.751   2.346   0.000  0.00  0.00    +0.203 A 
ATOM      7  N   UNL     1       2.059   1.016   0.000  0.00  0.00    -0.170 NA
ATOM      8  O   UNL     1       2.638   4.942   0.000  0.00  0.00    -0.266 OA
ATOM      9  N   UNL     1       0.560   0.951   0.000  0.00  0.00    -0.210 N 
ENDBRANCH  10   9
BRANCH  11  12
ATOM     12  O2* UNL     1       2.016  -1.970   0.000  0.00  0.00    -0.385 OA
ATOM     13  H2* UNL     1       2.355  -2.879   0.000  0.00  0.00    +0.210 HD
ENDBRANCH  11  12
BRANCH  14  15
ATOM     15  O3* UNL     1      -0.312  -4.257   0.000  0.00  0.00    -0.386 OA
ATOM     16  H3* UNL     1      -1.071  -4.861   0.000  0.00  0.00    +0.210 HD
ENDBRANCH  14  15
BRANCH  17  18
ATOM     18  C5* UNL     1      -3.207  -2.750   0.000  0.00  0.00    +0.190 C 
BRANCH  18  19
ATOM     19  O5* UNL     1      -3.298  -4.247   0.000  0.00  0.00    -0.392 OA
ATOM     20  H5* UNL     1      -4.166  -4.680   0.000  0.00  0.00    +0.210 HD
ENDBRANCH  18  19
ENDBRANCH  17  18
TORSDOF 5