REMARK  Name = 156215
REMARK  22 active torsions:
REMARK  status: ('A' for Active; 'I' for Inactive)
REMARK    1  A    between atoms: C_7  and  C_48
REMARK    2  A    between atoms: C_12  and  C_59
REMARK    3  A    between atoms: C_13  and  O_53
REMARK    4  A    between atoms: C_14  and  C_56
REMARK    5  A    between atoms: C_15  and  O_47
REMARK    6  A    between atoms: C_16  and  C_54
REMARK    7  A    between atoms: C_17  and  O_49
REMARK    8  A    between atoms: C_18  and  C_46
REMARK    9  A    between atoms: C_19  and  O_44
REMARK   10  A    between atoms: C_20  and  C_41
REMARK   11  A    between atoms: C_20  and  O_43
REMARK   12  A    between atoms: C_22  and  O_40
REMARK   13  A    between atoms: C_26  and  C_35
REMARK   14  A    between atoms: C_27  and  C_45
REMARK   15  A    between atoms: C_30  and  O_36
REMARK   16  A    between atoms: C_33  and  C_42
REMARK   17  A    between atoms: O_36  and  C_37
REMARK   18  A    between atoms: C_37  and  C_39
REMARK   19  A    between atoms: O_49  and  C_50
REMARK   20  A    between atoms: C_50  and  C_52
REMARK   21  A    between atoms: C_54  and  O_57
REMARK   22  A    between atoms: O_57  and  C_58
REMARK                            x       y       z     vdW  Elec       q    Type
REMARK                         _______ _______ _______ _____ _____    ______ ____
ROOT
ATOM      1  O   UNL     1       3.107  -4.692   0.000  0.00  0.00    -0.455 OA
ATOM      2  C   UNL     1       3.090  -6.192   0.000  0.00  0.00    +0.466 C 
ATOM      3  O   UNL     1       4.381  -6.957   0.000  0.00  0.00    -0.455 OA
ATOM      4  C   UNL     1       5.688  -6.221   0.000  0.00  0.00    +0.139 C 
ATOM      5  C   UNL     1       3.490 -11.962   0.000  0.00  0.00    -0.009 C 
ATOM      6  C   UNL     1       1.991 -12.036   0.000  0.00  0.00    +0.047 C 
ATOM      7  C   UNL     1       4.385 -13.156   0.000  0.00  0.00    +0.016 C 
ATOM      8  C   UNL     1       5.131 -14.448   0.000  0.00  0.00    +0.108 C 
ATOM     11  C   UNL     1       3.681 -14.831   0.000  0.00  0.00    +0.048 C 
ATOM     12  C   UNL     1       6.343 -15.332   0.000  0.00  0.00    +0.156 C 
ATOM     15  C   UNL     1       7.729 -15.905   0.000  0.00  0.00    +0.059 C 
ATOM     16  C   UNL     1       7.324 -17.349   0.000  0.00  0.00    +0.014 C 
ATOM     17  C   UNL     1       9.211 -16.135   0.000  0.00  0.00    +0.198 C 
ATOM     22  C   UNL     1      10.706 -16.010   0.000  0.00  0.00    +0.167 C 
ATOM     27  C   UNL     1      12.129 -15.535   0.000  0.00  0.00    +0.137 C 
ATOM     30  C   UNL     1      13.400 -14.739   0.000  0.00  0.00    +0.044 C 
ATOM     31  C   UNL     1      14.342 -15.906   0.000  0.00  0.00    +0.013 C 
ATOM     32  C   UNL     1      14.448 -13.665   0.000  0.00  0.00    +0.126 C 
ATOM     35  C   UNL     1      15.212 -12.374   0.000  0.00  0.00    +0.037 C 
ATOM     36  C   UNL     1      16.584 -12.980   0.000  0.00  0.00    +0.014 C 
ATOM     37  C   UNL     1      15.651 -10.940   0.000  0.00  0.00    -0.021 C 
ATOM     38  C   UNL     1      15.740  -9.443   0.000  0.00  0.00    -0.003 C 
ATOM     39  C   UNL     1      15.217  -8.045   0.000  0.00  0.00    +0.008 C 
ATOM     40  C   UNL     1      14.865  -6.595   0.000  0.00  0.00    +0.012 C 
ATOM     41  C   UNL     1      16.154  -5.829   0.000  0.00  0.00    +0.049 C 
ATOM     42  C   UNL     1      13.951  -5.406   0.000  0.00  0.00    +0.244 C 
ATOM     43  O   UNL     1      15.024  -4.357   0.000  0.00  0.00    -0.270 OA
ATOM     44  N   UNL     1      12.783  -4.465   0.000  0.00  0.00    -0.279 N 
ATOM     45  C   UNL     1      11.425  -3.826   0.000  0.00  0.00    +0.083 A 
ATOM     46  C   UNL     1       9.956  -3.526   0.000  0.00  0.00    +0.017 A 
ATOM     47  C   UNL     1      10.080  -2.031   0.000  0.00  0.00    +0.049 C 
ATOM     48  C   UNL     1       8.457  -3.580   0.000  0.00  0.00    +0.145 A 
ATOM     53  C   UNL     1       7.013  -3.986   0.000  0.00  0.00    +0.046 A 
ATOM     54  C   UNL     1       7.030  -2.486   0.000  0.00  0.00    +0.077 A 
ATOM     55  C   UNL     1       5.739  -1.722   0.000  0.00  0.00    +0.197 C 
ATOM     56  C   UNL     1       4.432  -2.457   0.000  0.00  0.00    +0.039 C 
ATOM     57  C   UNL     1       3.142  -1.692   0.000  0.00  0.00    +0.051 C 
ATOM     58  O   UNL     1       5.756  -0.222   0.000  0.00  0.00    -0.287 OA
ATOM     59  C   UNL     1       8.331  -1.740   0.000  0.00  0.00    +0.150 A 
ATOM     62  H   UNL     1      13.578  -3.193   0.000  0.00  0.00    +0.155 HD
ATOM     63  C   UNL     1       5.705  -4.721   0.000  0.00  0.00    +0.071 C 
ATOM     64  C   UNL     1       4.415  -3.957   0.000  0.00  0.00    +0.143 C 
ENDROOT
BRANCH   8   9
ATOM      9  O   UNL     1       4.854 -15.922   0.000  0.00  0.00    -0.382 OA
ATOM     10  H   UNL     1       3.939 -16.243   0.000  0.00  0.00    +0.211 HD
ENDBRANCH   8   9
BRANCH  12  13
ATOM     13  O   UNL     1       5.609 -16.640   0.000  0.00  0.00    -0.388 OA
ATOM     14  H   UNL     1       4.639 -16.652   0.000  0.00  0.00    +0.210 HD
ENDBRANCH  12  13
BRANCH  22  23
ATOM     23  C   UNL     1      11.114 -17.993   0.000  0.00  0.00    +0.316 C 
ATOM     26  O   UNL     1      12.538 -18.466   0.000  0.00  0.00    -0.250 OA
BRANCH  23  24
ATOM     24  O   UNL     1       9.993 -18.989   0.000  0.00  0.00    -0.468 OA
ATOM     25  C   UNL     1      10.295 -20.459   0.000  0.00  0.00    +0.280 C 
ENDBRANCH  23  24
ENDBRANCH  22  23
BRANCH  27  28
ATOM     28  O   UNL     1      12.769 -16.892   0.000  0.00  0.00    -0.390 OA
ATOM     29  H   UNL     1      12.216 -17.689   0.000  0.00  0.00    +0.210 HD
ENDBRANCH  27  28
BRANCH  32  33
ATOM     33  O   UNL     1      15.638 -14.577   0.000  0.00  0.00    -0.391 OA
ATOM     34  H   UNL     1      15.512 -15.539   0.000  0.00  0.00    +0.210 HD
ENDBRANCH  32  33
BRANCH  59  60
ATOM     60  O   UNL     1       8.385  -0.240   0.000  0.00  0.00    -0.504 OA
ATOM     61  H   UNL     1       9.213   0.198   0.000  0.00  0.00    +0.292 HD
ENDBRANCH  59  60
BRANCH  17  18
ATOM     18  O   UNL     1       9.140 -18.159   0.000  0.00  0.00    -0.460 OA
BRANCH  18  19
ATOM     19  C   UNL     1       7.816 -18.863   0.000  0.00  0.00    +0.304 C 
ATOM     20  C   UNL     1       7.763 -20.362   0.000  0.00  0.00    +0.136 C 
ATOM     21  O   UNL     1       6.544 -18.068   0.000  0.00  0.00    -0.251 OA
ENDBRANCH  18  19
ENDBRANCH  17  18
BRANCH  48  49
ATOM     49  O   UNL     1       8.225  -2.098   0.000  0.00  0.00    -0.425 OA
BRANCH  49  50
ATOM     50  C   UNL     1       9.392  -1.156   0.000  0.00  0.00    +0.309 C 
ATOM     51  C   UNL     1      10.792  -1.696   0.000  0.00  0.00    +0.136 C 
ATOM     52  O   UNL     1       9.160   0.326   0.000  0.00  0.00    -0.251 OA
ENDBRANCH  49  50
ENDBRANCH  48  49
TORSDOF 11