REMARK  Name = 15623
REMARK  12 active torsions:
REMARK  status: ('A' for Active; 'I' for Inactive)
REMARK    1  A    between atoms: SB_3  and  C_6
REMARK    2  A    between atoms: SB_3  and  O_22
REMARK    3  A    between atoms: SB_3  and  O_23
REMARK    4  A    between atoms: C_8  and  C_24
REMARK    5  A    between atoms: C_11  and  O_12
REMARK    6  A    between atoms: C_11  and  C_13
REMARK    7  A    between atoms: C_11  and  C_15
REMARK    8  A    between atoms: C_13  and  O_14
REMARK    9  A    between atoms: C_13  and  C_17
REMARK   10  A    between atoms: C_16  and  C_20
REMARK   11  A    between atoms: C_17  and  O_19
REMARK   12  A    between atoms: C_20  and  O_21
REMARK                            x       y       z     vdW  Elec       q    Type
REMARK                         _______ _______ _______ _____ _____    ______ ____
ROOT
ATOM      1 NA   UNL     1      -1.523  -3.824   0.000  0.00  0.00    +0.000 Na
ENDROOT
TORSDOF 0