REMARK  Name = 139109
REMARK  5 active torsions:
REMARK  status: ('A' for Active; 'I' for Inactive)
REMARK    1  A    between atoms: C_2  and  N_20
REMARK    2  A    between atoms: C_6  and  C_21
REMARK    3  A    between atoms: C_8  and  C_16
REMARK    4  A    between atoms: C_11  and  N_13
REMARK    5  A    between atoms: C_17  and  C_18
REMARK                            x       y       z     vdW  Elec       q    Type
REMARK                         _______ _______ _______ _____ _____    ______ ____
ROOT
ATOM      3  N   UNL     1       2.049  -9.000   0.000  0.00  0.00    -0.282 N 
ATOM      4  H   UNL     1       1.196  -9.492   0.000  0.00  0.00    +0.155 HD
ATOM      5  C   UNL     1       2.049  -7.500   0.000  0.00  0.00    +0.241 C 
ATOM      6  O   UNL     1       3.348  -6.750   0.000  0.00  0.00    -0.270 OA
ENDROOT
BRANCH   3   2
ATOM      1  C   UNL     1       4.647  -9.000   0.000  0.00  0.00    +0.023 A 
ATOM      2  C   UNL     1       3.348  -9.750   0.000  0.00  0.00    +0.034 A 
ATOM     18  C   UNL     1       3.348 -11.250   0.000  0.00  0.00    +0.026 A 
ATOM     19  C   UNL     1       4.647 -12.000   0.000  0.00  0.00    -0.049 A 
ATOM     20  C   UNL     1       4.647 -13.500   0.000  0.00  0.00    +0.044 C 
ATOM     21  C   UNL     1       5.946 -11.250   0.000  0.00  0.00    +0.003 A 
ATOM     22  C   UNL     1       5.946  -9.750   0.000  0.00  0.00    +0.002 A 
ENDBRANCH   3   2
BRANCH   5   7
ATOM      7  C   UNL     1       0.750  -6.750   0.000  0.00  0.00    +0.068 C 
ATOM      8  C   UNL     1       0.750  -5.250   0.000  0.00  0.00    +0.013 C 
BRANCH   8   9
ATOM      9  C   UNL     1      -0.549  -4.500   0.000  0.00  0.00    -0.024 A 
ATOM     10  C   UNL     1      -1.848  -5.250   0.000  0.00  0.00    +0.014 A 
ATOM     11  C   UNL     1      -3.147  -4.500   0.000  0.00  0.00    +0.085 A 
ATOM     12  C   UNL     1      -3.147  -3.000   0.000  0.00  0.00    +0.273 A 
ATOM     16  C   UNL     1      -1.848  -2.250   0.000  0.00  0.00    +0.085 A 
ATOM     17  C   UNL     1      -0.549  -3.000   0.000  0.00  0.00    +0.014 A 
BRANCH  12  13
ATOM     13  N   UNL     1      -4.446  -2.250   0.000  0.00  0.00    +0.080 N 
ATOM     14  O   UNL     1      -5.745  -3.000   0.000  0.00  0.00    +0.041 OA
ATOM     15  O   UNL     1      -4.446  -0.750   0.000  0.00  0.00    -0.576 OA
ENDBRANCH  12  13
ENDBRANCH   8   9
ENDBRANCH   5   7
TORSDOF 4