REMARK  Name = 148958
REMARK  1 active torsions:
REMARK  status: ('A' for Active; 'I' for Inactive)
REMARK    1  A    between atoms: N_3  and  C_8
REMARK                            x       y       z     vdW  Elec       q    Type
REMARK                         _______ _______ _______ _____ _____    ______ ____
ROOT
ATOM      6  N   UNL     1       4.581  -2.508   0.000  0.00  0.00    -0.271 N 
ATOM      7  C   UNL     1       4.581  -4.008   0.000  0.00  0.00    +0.137 A 
ATOM      8  C   UNL     1       5.880  -4.758   0.000  0.00  0.00    +0.204 A 
ATOM      9  C   UNL     1       7.180  -4.008   0.000  0.00  0.00    +0.289 A 
ATOM     10  N   UNL     1       7.180  -2.508   0.000  0.00  0.00    -0.273 N 
ATOM     11  H   UNL     1       8.032  -2.016   0.000  0.00  0.00    +0.174 HD
ATOM     12  O   UNL     1       8.479  -4.758   0.000  0.00  0.00    -0.265 OA
ATOM     13  F   UNL     1       5.880  -6.258   0.000  0.00  0.00    -0.198 F 
ATOM     14  C   UNL     1       5.880  -1.758   0.000  0.00  0.00    +0.331 A 
ATOM     15  O   UNL     1       5.880  -0.258   0.000  0.00  0.00    -0.246 OA
ENDROOT
BRANCH   6   5
ATOM      1  O   UNL     1       4.164  -0.545   0.000  0.00  0.00    -0.356 OA
ATOM      2  C   UNL     1       3.282   0.669   0.000  0.00  0.00    +0.162 C 
ATOM      3  C   UNL     1       1.856   0.205   0.000  0.00  0.00    +0.032 C 
ATOM      4  C   UNL     1       1.856  -1.295   0.000  0.00  0.00    +0.057 C 
ATOM      5  C   UNL     1       3.282  -1.758   0.000  0.00  0.00    +0.223 C 
ENDBRANCH   6   5
TORSDOF 1