REMARK  Name = 15200
REMARK  1 active torsions:
REMARK  status: ('A' for Active; 'I' for Inactive)
REMARK    1  A    between atoms: N_2  and  O_4
REMARK                            x       y       z     vdW  Elec       q    Type
REMARK                         _______ _______ _______ _____ _____    ______ ____
ROOT
ATOM      1  N   UNL     1       0.101   4.272   0.000  0.00  0.00    +1.000 N 
ATOM      2  O   UNL     1      -0.649   2.973   0.000  0.00  0.00    -1.000 OA
ATOM      5  O   UNL     1      -0.649   5.571   0.000  0.00  0.00    +0.000 OA
ENDROOT
BRANCH   1   3
ATOM      3  O   UNL     1       1.601   4.272   0.000  0.00  0.00    +0.000 OA
ATOM      4  H   UNL     1       2.069   3.461   0.000  0.00  0.00    +0.000 HD
ENDBRANCH   1   3
TORSDOF 1