REMARK  Name = 145669
REMARK  1 active torsions:
REMARK  status: ('A' for Active; 'I' for Inactive)
REMARK    1  A    between atoms: C_15  and  C_16
REMARK                            x       y       z     vdW  Elec       q    Type
REMARK                         _______ _______ _______ _____ _____    ______ ____
ROOT
ATOM      1  H   UNL     1      -7.245  -1.500   0.000  0.00  0.00    +0.148 HD
ATOM      2  N   UNL     1      -7.245  -3.000   0.000  0.00  0.00    -0.322 N 
ATOM      3  C   UNL     1      -8.544  -3.750   0.000  0.00  0.00    +0.041 A 
ATOM      4  C   UNL     1      -8.544  -5.250   0.000  0.00  0.00    +0.058 A 
ATOM      5  C   UNL     1      -9.843  -6.000   0.000  0.00  0.00    +0.015 A 
ATOM      6  C   UNL     1     -11.142  -5.250   0.000  0.00  0.00    +0.001 A 
ATOM      7  C   UNL     1     -11.142  -3.750   0.000  0.00  0.00    +0.002 A 
ATOM      8  C   UNL     1      -7.245  -6.000   0.000  0.00  0.00    +0.247 C 
ATOM      9  N   UNL     1      -5.946  -5.250   0.000  0.00  0.00    -0.289 N 
ATOM     10  H   UNL     1      -4.647  -6.000   0.000  0.00  0.00    +0.151 HD
ATOM     11  O   UNL     1      -7.245  -7.500   0.000  0.00  0.00    -0.270 OA
ATOM     12  C   UNL     1      -9.843  -3.000   0.000  0.00  0.00    +0.024 A 
ATOM     13  C   UNL     1      -5.946  -3.750   0.000  0.00  0.00    +0.190 C 
ENDROOT
BRANCH  13  14
ATOM     14  C   UNL     1      -4.647  -3.000   0.000  0.00  0.00    -0.002 A 
ATOM     15  C   UNL     1      -4.647  -1.500   0.000  0.00  0.00    +0.008 A 
ATOM     16  C   UNL     1      -3.348  -0.750   0.000  0.00  0.00    +0.001 A 
ATOM     17  C   UNL     1      -2.049  -1.500   0.000  0.00  0.00    +0.008 A 
ATOM     18  C   UNL     1      -2.049  -3.000   0.000  0.00  0.00    -0.018 A 
ATOM     19  C   UNL     1      -0.750  -3.750   0.000  0.00  0.00    +0.008 A 
ATOM     20  C   UNL     1      -0.750  -5.250   0.000  0.00  0.00    +0.001 A 
ATOM     21  C   UNL     1      -2.049  -6.000   0.000  0.00  0.00    +0.001 A 
ATOM     22  C   UNL     1      -3.348  -5.250   0.000  0.00  0.00    +0.009 A 
ATOM     23  C   UNL     1      -3.348  -3.750   0.000  0.00  0.00    -0.011 A 
ENDBRANCH  13  14
TORSDOF 1