REMARK  Name = 136037
REMARK  6 active torsions:
REMARK  status: ('A' for Active; 'I' for Inactive)
REMARK    1  A    between atoms: C_10  and  C_26
REMARK    2  A    between atoms: C_14  and  C_24
REMARK    3  A    between atoms: C_15  and  C_25
REMARK    4  A    between atoms: C_16  and  C_22
REMARK    5  A    between atoms: C_22  and  N_23
REMARK    6  A    between atoms: C_26  and  O_28
REMARK                            x       y       z     vdW  Elec       q    Type
REMARK                         _______ _______ _______ _____ _____    ______ ____
ROOT
ATOM      1  C   UNL     1      -4.566  -2.133   0.000  0.00  0.00    -0.034 A 
ATOM      6  C   UNL     1      -6.029  -1.803   0.000  0.00  0.00    +0.005 A 
ATOM      7  C   UNL     1      -6.475  -0.371   0.000  0.00  0.00    +0.000 A 
ATOM      8  C   UNL     1      -5.457   0.731   0.000  0.00  0.00    +0.000 A 
ATOM      9  C   UNL     1      -3.994   0.401   0.000  0.00  0.00    +0.000 A 
ATOM     10  C   UNL     1      -3.548  -1.031   0.000  0.00  0.00    +0.005 A 
ENDROOT
BRANCH   1   2
ATOM      2  C   UNL     1      -5.011  -0.701   0.000  0.00  0.00    +0.113 C 
BRANCH   2   3
ATOM      3  N   UNL     1      -6.475  -0.371   0.000  0.00  0.00    -0.326 NA
ATOM      4  H   UNL     1      -7.167  -1.120   0.000  0.00  0.00    +0.119 HD
ATOM      5  H   UNL     1      -6.777   0.604   0.000  0.00  0.00    +0.119 HD
ENDBRANCH   2   3
ENDBRANCH   1   2
TORSDOF 2