REMARK  Name = 154020
REMARK  6 active torsions:
REMARK  status: ('A' for Active; 'I' for Inactive)
REMARK    1  A    between atoms: N_2  and  C_20
REMARK    2  A    between atoms: N_5  and  C1*_14
REMARK    3  A    between atoms: C2*_15  and  O2*_23
REMARK    4  A    between atoms: C3*_16  and  O3*_21
REMARK    5  A    between atoms: C4*_17  and  C5*_22
REMARK    6  A    between atoms: O5*_19  and  C5*_22
REMARK                            x       y       z     vdW  Elec       q    Type
REMARK                         _______ _______ _______ _____ _____    ______ ____
ROOT
ATOM      1  N   UNL     1       3.623  -0.275   0.000  0.00  0.00    -0.154 NA
ATOM      2  C   UNL     1       3.623  -1.775   0.000  0.00  0.00    +0.146 A 
ATOM      3  N   UNL     1       2.324  -2.525   0.000  0.00  0.00    -0.341 N 
ATOM      4  H   UNL     1       2.324  -3.509   0.000  0.00  0.00    +0.144 HD
ATOM      5  H   UNL     1       1.471  -2.032   0.000  0.00  0.00    +0.144 HD
ATOM      6  C   UNL     1       4.922  -2.525   0.000  0.00  0.00    +0.047 A 
ATOM      7  C   UNL     1       5.632  -3.973   0.000  0.00  0.00    +0.102 A 
ATOM      8  N   UNL     1       7.132  -3.973   0.000  0.00  0.00    -0.302 N 
ATOM     21  C   UNL     1       7.520  -2.525   0.000  0.00  0.00    +0.149 A 
ATOM     22  N   UNL     1       8.819  -1.775   0.000  0.00  0.00    -0.218 NA
ATOM     23  C   UNL     1       8.819  -0.275   0.000  0.00  0.00    +0.225 A 
ATOM     24  N   UNL     1       7.520   0.475   0.000  0.00  0.00    -0.216 NA
ATOM     25  C   UNL     1       6.221  -0.275   0.000  0.00  0.00    +0.162 A 
ATOM     26  C   UNL     1       6.221  -1.775   0.000  0.00  0.00    +0.073 A 
ATOM     27  N   UNL     1       4.922   0.475   0.000  0.00  0.00    -0.248 N 
ATOM     28  C   UNL     1       4.922   1.976   0.000  0.00  0.00    +0.174 C 
ENDROOT
BRANCH   8   9
ATOM      9  C1* UNL     1       8.045  -5.163   0.000  0.00  0.00    +0.252 C 
ATOM     10  C2* UNL     1       9.544  -5.124   0.000  0.00  0.00    +0.195 C 
ATOM     13  C3* UNL     1      10.045  -6.538   0.000  0.00  0.00    +0.178 C 
ATOM     16  C4* UNL     1       8.855  -7.451   0.000  0.00  0.00    +0.177 C 
ATOM     20  O4* UNL     1       7.619  -6.602   0.000  0.00  0.00    -0.346 OA
BRANCH  10  11
ATOM     11  O2* UNL     1      10.394  -3.888   0.000  0.00  0.00    -0.385 OA
ATOM     12  H2* UNL     1      11.361  -3.964   0.000  0.00  0.00    +0.210 HD
ENDBRANCH  10  11
BRANCH  13  14
ATOM     14  O3* UNL     1      11.483  -6.964   0.000  0.00  0.00    -0.386 OA
ATOM     15  H3* UNL     1      11.710  -7.907   0.000  0.00  0.00    +0.210 HD
ENDBRANCH  13  14
BRANCH  16  17
ATOM     17  C5* UNL     1       8.894  -8.951   0.000  0.00  0.00    +0.190 C 
BRANCH  17  18
ATOM     18  O5* UNL     1      10.212  -9.666   0.000  0.00  0.00    -0.392 OA
ATOM     19  H5* UNL     1      10.238 -10.636   0.000  0.00  0.00    +0.210 HD
ENDBRANCH  17  18
ENDBRANCH  16  17
ENDBRANCH   8   9
TORSDOF 5