REMARK  Name = 163088
REMARK  4 active torsions:
REMARK  status: ('A' for Active; 'I' for Inactive)
REMARK    1  A    between atoms: C_19  and  O_23
REMARK    2  A    between atoms: C_22  and  O_25
REMARK    3  A    between atoms: O_23  and  C_24
REMARK    4  A    between atoms: O_25  and  C_26
REMARK                            x       y       z     vdW  Elec       q    Type
REMARK                         _______ _______ _______ _____ _____    ______ ____
ROOT
ATOM      1  N   UNL     1       5.471   5.524   0.000  0.00  0.00    -0.196 N 
ATOM      2  C   UNL     1       4.172   4.774   0.000  0.00  0.00    +0.322 A 
ATOM      3  C   UNL     1       2.873   5.524   0.000  0.00  0.00    +0.091 A 
ATOM      4  C   UNL     1       1.574   4.774   0.000  0.00  0.00    +0.175 A 
ATOM      7  C   UNL     1       0.275   5.524   0.000  0.00  0.00    +0.162 A 
ATOM     10  C   UNL     1       0.275   7.024   0.000  0.00  0.00    +0.050 A 
ATOM     11  C   UNL     1       1.574   7.774   0.000  0.00  0.00    +0.013 A 
ATOM     12  C   UNL     1       2.873   7.024   0.000  0.00  0.00    -0.002 A 
ATOM     13  C   UNL     1       4.172   7.774   0.000  0.00  0.00    +0.087 A 
ATOM     14  C   UNL     1       6.770   4.774   0.000  0.00  0.00    +0.362 C 
ATOM     15  C   UNL     1       8.069   5.524   0.000  0.00  0.00    +0.108 C 
ATOM     16  C   UNL     1       8.069   7.024   0.000  0.00  0.00    -0.024 A 
ATOM     17  C   UNL     1       6.770   7.774   0.000  0.00  0.00    +0.053 A 
ATOM     18  C   UNL     1       6.770   9.274   0.000  0.00  0.00    +0.064 A 
ATOM     19  C   UNL     1       8.069  10.025   0.000  0.00  0.00    +0.167 A 
ATOM     20  C   UNL     1       9.368   9.274   0.000  0.00  0.00    +0.167 A 
ATOM     21  O   UNL     1      10.483  10.278   0.000  0.00  0.00    -0.453 OA
ATOM     22  C   UNL     1       9.872  11.649   0.000  0.00  0.00    +0.466 C 
ATOM     23  O   UNL     1       8.381  11.492   0.000  0.00  0.00    -0.453 OA
ATOM     24  C   UNL     1       9.368   7.774   0.000  0.00  0.00    +0.054 A 
ATOM     25  C   UNL     1       5.471   7.024   0.000  0.00  0.00    +0.216 A 
ENDROOT
BRANCH   4   5
ATOM      5  O   UNL     1       1.573   3.275   0.000  0.00  0.00    -0.491 OA
ATOM      6  C   UNL     1       0.275   2.525   0.000  0.00  0.00    +0.277 C 
ENDBRANCH   4   5
BRANCH   7   8
ATOM      8  O   UNL     1      -1.025   4.774   0.000  0.00  0.00    -0.491 OA
ATOM      9  C   UNL     1      -2.324   5.524   0.000  0.00  0.00    +0.277 C 
ENDBRANCH   7   8
TORSDOF 2