REMARK  Name = 136044
REMARK  20 active torsions:
REMARK  status: ('A' for Active; 'I' for Inactive)
REMARK    1  A    between atoms: O_4  and  C_11
REMARK    2  A    between atoms: O_4  and  C_12
REMARK    3  A    between atoms: O_5  and  C_26
REMARK    4  A    between atoms: O_5  and  C_30
REMARK    5  A    between atoms: C_7  and  C_46
REMARK    6  A    between atoms: C_8  and  O_50
REMARK    7  A    between atoms: C_9  and  N_43
REMARK    8  A    between atoms: C_13  and  O_47
REMARK    9  A    between atoms: C_13  and  C_48
REMARK   10  A    between atoms: C_15  and  O_37
REMARK   11  A    between atoms: C_27  and  O_38
REMARK   12  A    between atoms: C_29  and  O_35
REMARK   13  A    between atoms: C_32  and  N_40
REMARK   14  A    between atoms: C_33  and  C_39
REMARK   15  A    between atoms: C_34  and  O_36
REMARK   16  A    between atoms: N_40  and  C_41
REMARK   17  A    between atoms: N_40  and  C_42
REMARK   18  A    between atoms: N_43  and  C_44
REMARK   19  A    between atoms: N_43  and  C_45
REMARK   20  A    between atoms: C_48  and  C_49
REMARK                            x       y       z     vdW  Elec       q    Type
REMARK                         _______ _______ _______ _____ _____    ______ ____
ROOT
ATOM      1  O   UNL     1     -13.492  -5.250   0.000  0.00  0.00    -0.286 OA
ATOM      2  C   UNL     1     -13.492  -6.750   0.000  0.00  0.00    +0.198 C 
ATOM      3  C   UNL     1     -14.791  -7.500   0.000  0.00  0.00    +0.037 A 
ATOM      4  C   UNL     1     -16.090  -6.750   0.000  0.00  0.00    +0.012 A 
ATOM      5  C   UNL     1     -17.389  -7.500   0.000  0.00  0.00    +0.004 A 
ATOM      6  C   UNL     1     -17.389  -9.000   0.000  0.00  0.00    +0.046 A 
ATOM      7  C   UNL     1     -16.090  -9.750   0.000  0.00  0.00    +0.128 A 
ATOM     10  C   UNL     1     -14.791  -9.000   0.000  0.00  0.00    +0.075 A 
ATOM     11  C   UNL     1     -13.492  -9.750   0.000  0.00  0.00    +0.202 C 
ATOM     12  C   UNL     1     -12.193  -9.000   0.000  0.00  0.00    +0.078 A 
ATOM     13  C   UNL     1     -10.894  -9.750   0.000  0.00  0.00    +0.135 A 
ATOM     16  C   UNL     1      -9.595  -9.000   0.000  0.00  0.00    +0.033 A 
ATOM     17  C   UNL     1      -8.296  -9.750   0.000  0.00  0.00    +0.158 C 
ATOM     18  C   UNL     1      -6.997  -9.000   0.000  0.00  0.00    +0.074 C 
ATOM     19  C   UNL     1      -6.997  -7.500   0.000  0.00  0.00    +0.099 C 
ATOM     24  C   UNL     1      -8.296  -6.750   0.000  0.00  0.00    +0.187 C 
ATOM     51  C   UNL     1      -9.595  -7.500   0.000  0.00  0.00    +0.035 A 
ATOM     52  C   UNL     1     -10.894  -6.750   0.000  0.00  0.00    +0.135 A 
ATOM     55  O   UNL     1     -13.492 -11.250   0.000  0.00  0.00    -0.286 OA
ATOM     56  C   UNL     1     -12.193  -7.500   0.000  0.00  0.00    +0.078 A 
ENDROOT
BRANCH   7   8
ATOM      8  O   UNL     1     -16.090 -11.250   0.000  0.00  0.00    -0.506 OA
ATOM      9  H   UNL     1     -16.901 -11.719   0.000  0.00  0.00    +0.292 HD
ENDBRANCH   7   8
BRANCH  13  14
ATOM     14  O   UNL     1     -10.894 -11.250   0.000  0.00  0.00    -0.506 OA
ATOM     15  H   UNL     1     -11.705 -11.719   0.000  0.00  0.00    +0.292 HD
ENDBRANCH  13  14
BRANCH  19  20
ATOM     20  C   UNL     1      -6.484  -6.090   0.000  0.00  0.00    +0.034 C 
ATOM     21  C   UNL     1      -5.007  -5.830   0.000  0.00  0.00    +0.007 C 
ENDBRANCH  19  20
BRANCH  19  22
ATOM     22  O   UNL     1      -5.519  -7.761   0.000  0.00  0.00    -0.386 OA
ATOM     23  H   UNL     1      -5.188  -8.672   0.000  0.00  0.00    +0.210 HD
ENDBRANCH  19  22
BRANCH  52  53
ATOM     53  O   UNL     1     -10.894  -5.250   0.000  0.00  0.00    -0.506 OA
ATOM     54  H   UNL     1     -10.082  -4.782   0.000  0.00  0.00    +0.292 HD
ENDBRANCH  52  53
BRANCH  24  25
ATOM     25  O   UNL     1      -8.296  -5.250   0.000  0.00  0.00    -0.340 OA
BRANCH  25  26
ATOM     26  C   UNL     1      -6.997  -4.500   0.000  0.00  0.00    +0.253 C 
ATOM     27  C   UNL     1      -5.698  -5.250   0.000  0.00  0.00    +0.083 C 
ATOM     28  C   UNL     1      -4.399  -4.500   0.000  0.00  0.00    +0.092 C 
ATOM     32  C   UNL     1      -4.399  -3.000   0.000  0.00  0.00    +0.160 C 
ATOM     35  C   UNL     1      -5.698  -2.250   0.000  0.00  0.00    +0.148 C 
ATOM     36  C   UNL     1      -5.698  -0.750   0.000  0.00  0.00    +0.041 C 
ATOM     37  O   UNL     1      -6.997  -3.000   0.000  0.00  0.00    -0.346 OA
BRANCH  28  29
ATOM     29  N   UNL     1      -5.698  -3.750   0.000  0.00  0.00    -0.303 NA
ATOM     30  C   UNL     1      -5.698  -2.250   0.000  0.00  0.00    +0.105 C 
ATOM     31  C   UNL     1      -6.997  -4.500   0.000  0.00  0.00    +0.105 C 
ENDBRANCH  28  29
BRANCH  32  33
ATOM     33  O   UNL     1      -3.100  -2.250   0.000  0.00  0.00    -0.388 OA
ATOM     34  H   UNL     1      -2.260  -2.735   0.000  0.00  0.00    +0.210 HD
ENDBRANCH  32  33
ENDBRANCH  25  26
ENDBRANCH  24  25
BRANCH  17  38
ATOM     38  O   UNL     1      -8.296 -11.250   0.000  0.00  0.00    -0.343 OA
BRANCH  38  39
ATOM     39  C   UNL     1      -6.997 -12.000   0.000  0.00  0.00    +0.253 C 
ATOM     40  C   UNL     1      -5.698 -11.250   0.000  0.00  0.00    +0.083 C 
ATOM     41  C   UNL     1      -4.399 -12.000   0.000  0.00  0.00    +0.092 C 
ATOM     45  C   UNL     1      -4.399 -13.500   0.000  0.00  0.00    +0.160 C 
ATOM     48  C   UNL     1      -5.698 -14.250   0.000  0.00  0.00    +0.148 C 
ATOM     49  C   UNL     1      -5.698 -12.750   0.000  0.00  0.00    +0.041 C 
ATOM     50  O   UNL     1      -6.997 -13.500   0.000  0.00  0.00    -0.346 OA
BRANCH  41  42
ATOM     42  N   UNL     1      -3.100 -11.250   0.000  0.00  0.00    -0.303 NA
ATOM     43  C   UNL     1      -3.100  -9.750   0.000  0.00  0.00    +0.105 C 
ATOM     44  C   UNL     1      -1.801 -12.000   0.000  0.00  0.00    +0.105 C 
ENDBRANCH  41  42
BRANCH  45  46
ATOM     46  O   UNL     1      -3.100 -14.250   0.000  0.00  0.00    -0.388 OA
ATOM     47  H   UNL     1      -3.100 -15.220   0.000  0.00  0.00    +0.210 HD
ENDBRANCH  45  46
ENDBRANCH  38  39
ENDBRANCH  17  38
TORSDOF 13