REMARK  Name = 154890
REMARK  12 active torsions:
REMARK  status: ('A' for Active; 'I' for Inactive)
REMARK    1  A    between atoms: O_1  and  C_4
REMARK    2  A    between atoms: O_1  and  C_26
REMARK    3  A    between atoms: O_2  and  C_3
REMARK    4  A    between atoms: O_2  and  C_27
REMARK    5  A    between atoms: C_17  and  C_28
REMARK    6  A    between atoms: C_18  and  O_19
REMARK    7  A    between atoms: O_19  and  C_29
REMARK    8  A    between atoms: C_21  and  O_22
REMARK    9  A    between atoms: O_22  and  C_30
REMARK   10  A    between atoms: S_23  and  O_31
REMARK   11  A    between atoms: S_23  and  C_32
REMARK   12  A    between atoms: C_32  and  C_33
REMARK                            x       y       z     vdW  Elec       q    Type
REMARK                         _______ _______ _______ _____ _____    ______ ____
ROOT
ATOM      1  S   UNL     1      10.717   5.411   0.000  0.00  0.00    +0.085 S 
ATOM      8  O   UNL     1       9.418   4.661   0.000  0.00  0.00    -0.147 OA
ATOM      9  O   UNL     1      12.016   6.161   0.000  0.00  0.00    -0.147 OA
ENDROOT
BRANCH   1   6
ATOM      6  O   UNL     1       9.967   6.710   0.000  0.00  0.00    -0.254 OA
ATOM      7  H   UNL     1      10.452   7.550   0.000  0.00  0.00    +0.244 HD
ENDBRANCH   1   6
BRANCH   1   2
ATOM      2  C   UNL     1      11.467   4.112   0.000  0.00  0.00    +0.249 C 
BRANCH   2   3
ATOM      3  C   UNL     1      12.967   4.112   0.000  0.00  0.00    +0.065 C 
ATOM      4  O   UNL     1      13.717   2.813   0.000  0.00  0.00    -0.548 OA
ATOM      5  O   UNL     1      13.717   5.411   0.000  0.00  0.00    -0.548 OA
ENDBRANCH   2   3
ENDBRANCH   1   2
TORSDOF 3