REMARK  Name = 164909
REMARK  9 active torsions:
REMARK  status: ('A' for Active; 'I' for Inactive)
REMARK    1  A    between atoms: SN_1  and  C_20
REMARK    2  A    between atoms: SN_1  and  C_21
REMARK    3  A    between atoms: SN_1  and  O_22
REMARK    4  A    between atoms: SN_1  and  C_26
REMARK    5  A    between atoms: C_7  and  C_21
REMARK    6  A    between atoms: C_10  and  C_26
REMARK    7  A    between atoms: C_15  and  C_20
REMARK    8  A    between atoms: O_22  and  C_23
REMARK    9  A    between atoms: C_23  and  C_25
REMARK                            x       y       z     vdW  Elec       q    Type
REMARK                         _______ _______ _______ _____ _____    ______ ____
ROOT
ATOM      1 SN   UNL     1      -2.971  -8.582   0.000  0.00  0.00    +0.000 Sn
ENDROOT
BRANCH   1   2
ATOM      2  C   UNL     1      -2.221  -7.282   0.000  0.00  0.00    +0.000 C 
BRANCH   2   3
ATOM      3  C   UNL     1      -0.721  -7.282   0.000  0.00  0.00    +0.000 A 
ATOM      4  C   UNL     1       0.029  -8.582   0.000  0.00  0.00    +0.000 A 
ATOM      5  C   UNL     1       1.529  -8.582   0.000  0.00  0.00    +0.000 A 
ATOM      6  C   UNL     1       2.279  -7.282   0.000  0.00  0.00    +0.000 A 
ATOM      7  C   UNL     1       1.529  -5.983   0.000  0.00  0.00    +0.000 A 
ATOM      8  C   UNL     1       0.029  -5.983   0.000  0.00  0.00    +0.000 A 
ENDBRANCH   2   3
ENDBRANCH   1   2
BRANCH   1   9
ATOM      9  O   UNL     1      -1.672  -9.332   0.000  0.00  0.00    +0.000 OA
BRANCH   9  10
ATOM     10  C   UNL     1      -1.672 -10.832   0.000  0.00  0.00    +0.000 C 
ATOM     11  C   UNL     1      -0.373 -11.582   0.000  0.00  0.00    +0.000 C 
ATOM     12  O   UNL     1      -2.971 -11.582   0.000  0.00  0.00    +0.000 OA
ENDBRANCH   9  10
ENDBRANCH   1   9
BRANCH   1  13
ATOM     13  C   UNL     1      -4.270  -7.832   0.000  0.00  0.00    +0.000 C 
BRANCH  13  14
ATOM     14  C   UNL     1      -4.270  -6.332   0.000  0.00  0.00    +0.000 A 
ATOM     15  C   UNL     1      -5.569  -5.582   0.000  0.00  0.00    +0.000 A 
ATOM     16  C   UNL     1      -5.569  -4.082   0.000  0.00  0.00    +0.000 A 
ATOM     17  C   UNL     1      -4.270  -3.332   0.000  0.00  0.00    +0.000 A 
ATOM     18  C   UNL     1      -2.971  -4.082   0.000  0.00  0.00    +0.000 A 
ATOM     19  C   UNL     1      -2.971  -5.582   0.000  0.00  0.00    +0.000 A 
ENDBRANCH  13  14
ENDBRANCH   1  13
BRANCH   1  20
ATOM     20  C   UNL     1      -3.721  -9.881   0.000  0.00  0.00    +0.000 C 
BRANCH  20  21
ATOM     21  C   UNL     1      -5.221  -9.881   0.000  0.00  0.00    +0.000 A 
ATOM     22  C   UNL     1      -5.971 -11.180   0.000  0.00  0.00    +0.000 A 
ATOM     23  C   UNL     1      -7.471 -11.180   0.000  0.00  0.00    +0.000 A 
ATOM     24  C   UNL     1      -8.221  -9.881   0.000  0.00  0.00    +0.000 A 
ATOM     25  C   UNL     1      -7.471  -8.582   0.000  0.00  0.00    +0.000 A 
ATOM     26  C   UNL     1      -5.971  -8.582   0.000  0.00  0.00    +0.000 A 
ENDBRANCH  20  21
ENDBRANCH   1  20
TORSDOF 8