REMARK  Name = 14574
REMARK  9 active torsions:
REMARK  status: ('A' for Active; 'I' for Inactive)
REMARK    1  A    between atoms: C_3  and  N_17
REMARK    2  A    between atoms: C_14  and  C_25
REMARK    3  A    between atoms: N_17  and  C_18
REMARK    4  A    between atoms: C_18  and  C_19
REMARK    5  A    between atoms: C_19  and  N_20
REMARK    6  A    between atoms: N_20  and  C_21
REMARK    7  A    between atoms: N_20  and  C_23
REMARK    8  A    between atoms: C_21  and  C_22
REMARK    9  A    between atoms: C_23  and  C_24
REMARK                            x       y       z     vdW  Elec       q    Type
REMARK                         _______ _______ _______ _____ _____    ______ ____
ROOT
ATOM      1 CL   UNL     1      10.044  -6.678   0.000  0.00  0.00    -0.145 Cl
ATOM      2  H   UNL     1      11.374  -6.678   0.000  0.00  0.00    +0.145 HD
ENDROOT
TORSDOF 0