REMARK  Name = 164914
REMARK  14 active torsions:
REMARK  status: ('A' for Active; 'I' for Inactive)
REMARK    1  A    between atoms: C_6  and  O_10
REMARK    2  A    between atoms: O_10  and  SN_11
REMARK    3  A    between atoms: SN_11  and  C_12
REMARK    4  A    between atoms: SN_11  and  C_13
REMARK    5  A    between atoms: SN_11  and  C_14
REMARK    6  A    between atoms: C_12  and  C_19
REMARK    7  A    between atoms: C_13  and  C_17
REMARK    8  A    between atoms: C_14  and  C_15
REMARK    9  A    between atoms: C_15  and  C_16
REMARK   10  A    between atoms: C_16  and  C_21
REMARK   11  A    between atoms: C_17  and  C_18
REMARK   12  A    between atoms: C_18  and  C_22
REMARK   13  A    between atoms: C_19  and  C_20
REMARK   14  A    between atoms: C_20  and  C_23
REMARK                            x       y       z     vdW  Elec       q    Type
REMARK                         _______ _______ _______ _____ _____    ______ ____
ROOT
ATOM      8 SN   UNL     1      -5.250  -3.348   0.000  0.00  0.00    +0.000 Sn
ATOM      9  H   UNL     1      -3.784  -4.210   0.000  0.00  0.00    +0.000 HD
ENDROOT
BRANCH   8   7
ATOM      7  O   UNL     1      -6.549  -2.598   0.000  0.00  0.00    +0.000 OA
BRANCH   7   6
ATOM      1 CL   UNL     1     -11.745  -2.598   0.000  0.00  0.00    +0.000 Cl
ATOM      2  C   UNL     1     -10.446  -3.348   0.000  0.00  0.00    +0.000 A 
ATOM      3  C   UNL     1     -10.446  -4.848   0.000  0.00  0.00    +0.000 A 
ATOM      4  C   UNL     1      -9.147  -5.598   0.000  0.00  0.00    +0.000 A 
ATOM      5  C   UNL     1      -7.848  -4.848   0.000  0.00  0.00    +0.000 A 
ATOM      6  C   UNL     1      -7.848  -3.348   0.000  0.00  0.00    +0.000 A 
ATOM     22 CL   UNL     1      -6.549  -5.598   0.000  0.00  0.00    +0.000 Cl
ATOM     23 CL   UNL     1     -11.745  -5.598   0.000  0.00  0.00    +0.000 Cl
ATOM     24  C   UNL     1      -9.147  -2.598   0.000  0.00  0.00    +0.000 A 
ENDBRANCH   7   6
ENDBRANCH   8   7
BRANCH   8  10
ATOM     10  C   UNL     1      -3.951  -4.098   0.000  0.00  0.00    +0.000 C 
BRANCH  10  11
ATOM     11  C   UNL     1      -2.652  -3.348   0.000  0.00  0.00    +0.000 C 
BRANCH  11  12
ATOM     12  C   UNL     1      -1.353  -4.098   0.000  0.00  0.00    +0.000 C 
ATOM     13  C   UNL     1      -1.353  -5.598   0.000  0.00  0.00    +0.000 C 
ENDBRANCH  11  12
ENDBRANCH  10  11
ENDBRANCH   8  10
BRANCH   8  14
ATOM     14  C   UNL     1      -6.000  -4.647   0.000  0.00  0.00    +0.000 C 
BRANCH  14  15
ATOM     15  C   UNL     1      -5.250  -5.946   0.000  0.00  0.00    +0.000 C 
BRANCH  15  16
ATOM     16  C   UNL     1      -3.750  -5.946   0.000  0.00  0.00    +0.000 C 
ATOM     17  C   UNL     1      -3.000  -7.245   0.000  0.00  0.00    +0.000 C 
ENDBRANCH  15  16
ENDBRANCH  14  15
ENDBRANCH   8  14
BRANCH   8  18
ATOM     18  C   UNL     1      -4.500  -2.049   0.000  0.00  0.00    +0.000 C 
BRANCH  18  19
ATOM     19  C   UNL     1      -3.000  -2.049   0.000  0.00  0.00    +0.000 C 
BRANCH  19  20
ATOM     20  C   UNL     1      -2.250  -0.750   0.000  0.00  0.00    +0.000 C 
ATOM     21  C   UNL     1      -0.750  -0.750   0.000  0.00  0.00    +0.000 C 
ENDBRANCH  19  20
ENDBRANCH  18  19
ENDBRANCH   8  18
TORSDOF 11