REMARK  Name = 138429
REMARK  17 active torsions:
REMARK  status: ('A' for Active; 'I' for Inactive)
REMARK    1  A    between atoms: O_1  and  C_19
REMARK    2  A    between atoms: O_1  and  C_21
REMARK    3  A    between atoms: O_3  and  C_14
REMARK    4  A    between atoms: O_3  and  C_22
REMARK    5  A    between atoms: O_6  and  C_13
REMARK    6  A    between atoms: O_6  and  C_25
REMARK    7  A    between atoms: N_7  and  C_12
REMARK    8  A    between atoms: C_15  and  C_21
REMARK    9  A    between atoms: C_16  and  C_17
REMARK   10  A    between atoms: C_16  and  C_19
REMARK   11  A    between atoms: C_17  and  C_18
REMARK   12  A    between atoms: C_22  and  C_27
REMARK   13  A    between atoms: C_25  and  C_30
REMARK   14  A    between atoms: C_27  and  C_28
REMARK   15  A    between atoms: C_28  and  C_29
REMARK   16  A    between atoms: C_30  and  C_31
REMARK   17  A    between atoms: C_31  and  C_32
REMARK                            x       y       z     vdW  Elec       q    Type
REMARK                         _______ _______ _______ _____ _____    ______ ____
ROOT
ATOM      3  C   UNL     1       3.395  -9.058   0.000  0.00  0.00    +0.203 C 
ATOM      4  C   UNL     1       4.895  -9.058   0.000  0.00  0.00    +0.253 C 
ATOM      5  C   UNL     1       5.359  -7.632   0.000  0.00  0.00    +0.269 C 
ATOM      6  C   UNL     1       4.145  -6.750   0.000  0.00  0.00    +0.268 C 
ATOM     29  O   UNL     1       2.932  -7.632   0.000  0.00  0.00    -0.342 OA
ENDROOT
BRANCH   6   7
ATOM      7  N   UNL     1       4.145  -5.250   0.000  0.00  0.00    -0.269 N 
ATOM      8  C   UNL     1       2.846  -4.500   0.000  0.00  0.00    +0.352 A 
ATOM      9  N   UNL     1       2.846  -3.000   0.000  0.00  0.00    -0.178 NA
ATOM     10  C   UNL     1       4.145  -2.250   0.000  0.00  0.00    +0.123 A 
ATOM     11  N   UNL     1       4.145  -0.750   0.000  0.00  0.00    -0.343 N 
ATOM     12  H   UNL     1       3.292  -0.258   0.000  0.00  0.00    +0.144 HD
ATOM     13  H   UNL     1       4.998  -0.258   0.000  0.00  0.00    +0.144 HD
ATOM     14  C   UNL     1       5.444  -3.000   0.000  0.00  0.00    +0.061 A 
ATOM     15  O   UNL     1       1.547  -5.250   0.000  0.00  0.00    -0.244 OA
ATOM     16  C   UNL     1       5.444  -4.500   0.000  0.00  0.00    +0.096 A 
ENDBRANCH   6   7
BRANCH   3   2
ATOM      2  C   UNL     1       2.513 -10.272   0.000  0.00  0.00    +0.267 C 
BRANCH   2   1
ATOM      1  O   UNL     1       3.123 -11.642   0.000  0.00  0.00    -0.462 OA
BRANCH   1  30
ATOM     30  C   UNL     1       2.242 -12.856   0.000  0.00  0.00    +0.307 C 
ATOM     31  O   UNL     1       0.750 -12.699   0.000  0.00  0.00    -0.251 OA
BRANCH  30  32
ATOM     32  C   UNL     1       2.852 -14.226   0.000  0.00  0.00    +0.120 C 
BRANCH  32  33
ATOM     33  C   UNL     1       1.970 -15.440   0.000  0.00  0.00    +0.008 C 
ATOM     34  C   UNL     1       2.580 -16.810   0.000  0.00  0.00    +0.004 C 
ENDBRANCH  32  33
ENDBRANCH  30  32
ENDBRANCH   1  30
ENDBRANCH   2   1
ENDBRANCH   3   2
BRANCH   5  17
ATOM     17  O   UNL     1       4.034  -8.336   0.000  0.00  0.00    -0.453 OA
BRANCH  17  18
ATOM     18  C   UNL     1       3.963 -10.360   0.000  0.00  0.00    +0.308 C 
ATOM     22  O   UNL     1       2.639 -11.064   0.000  0.00  0.00    -0.251 OA
BRANCH  18  19
ATOM     19  C   UNL     1       5.236 -11.155   0.000  0.00  0.00    +0.120 C 
BRANCH  19  20
ATOM     20  C   UNL     1       5.183 -12.654   0.000  0.00  0.00    +0.008 C 
ATOM     21  C   UNL     1       6.455 -13.448   0.000  0.00  0.00    +0.004 C 
ENDBRANCH  19  20
ENDBRANCH  18  19
ENDBRANCH  17  18
ENDBRANCH   5  17
BRANCH   4  23
ATOM     23  O   UNL     1       6.085 -10.697   0.000  0.00  0.00    -0.455 OA
BRANCH  23  24
ATOM     24  C   UNL     1       7.577 -10.540   0.000  0.00  0.00    +0.308 C 
ATOM     28  O   UNL     1       8.459 -11.753   0.000  0.00  0.00    -0.251 OA
BRANCH  24  25
ATOM     25  C   UNL     1       8.187  -9.169   0.000  0.00  0.00    +0.120 C 
BRANCH  25  26
ATOM     26  C   UNL     1       7.306  -7.956   0.000  0.00  0.00    +0.008 C 
ATOM     27  C   UNL     1       7.916  -6.585   0.000  0.00  0.00    +0.004 C 
ENDBRANCH  25  26
ENDBRANCH  24  25
ENDBRANCH  23  24
ENDBRANCH   4  23
TORSDOF 14