REMARK  Name = 145366
REMARK  32 active torsions:
REMARK  status: ('A' for Active; 'I' for Inactive)
REMARK    1  A    between atoms: O_1  and  C_13
REMARK    2  A    between atoms: O_1  and  C_28
REMARK    3  A    between atoms: O_2  and  C_6
REMARK    4  A    between atoms: O_2  and  C_32
REMARK    5  A    between atoms: C_5  and  C_29
REMARK    6  A    between atoms: C_11  and  C_29
REMARK    7  A    between atoms: C_15  and  C_16
REMARK    8  A    between atoms: C_15  and  C_17
REMARK    9  A    between atoms: C_15  and  C_18
REMARK   10  A    between atoms: C_15  and  C_19
REMARK   11  A    between atoms: C_19  and  C_21
REMARK   12  A    between atoms: C_21  and  C_22
REMARK   13  A    between atoms: C_21  and  C_23
REMARK   14  A    between atoms: C_21  and  N_24
REMARK   15  A    between atoms: N_24  and  C_25
REMARK   16  A    between atoms: C_25  and  C_26
REMARK   17  A    between atoms: C_26  and  O_27
REMARK   18  A    between atoms: C_26  and  C_28
REMARK   19  A    between atoms: C_29  and  C_30
REMARK   20  A    between atoms: C_29  and  C_31
REMARK   21  A    between atoms: C_32  and  C_33
REMARK   22  A    between atoms: C_33  and  O_34
REMARK   23  A    between atoms: C_33  and  C_35
REMARK   24  A    between atoms: C_35  and  N_36
REMARK   25  A    between atoms: N_36  and  C_37
REMARK   26  A    between atoms: C_37  and  C_38
REMARK   27  A    between atoms: C_37  and  C_39
REMARK   28  A    between atoms: C_37  and  C_40
REMARK   29  A    between atoms: C_40  and  C_41
REMARK   30  A    between atoms: C_41  and  C_42
REMARK   31  A    between atoms: C_41  and  C_43
REMARK   32  A    between atoms: C_41  and  C_44
REMARK                            x       y       z     vdW  Elec       q    Type
REMARK                         _______ _______ _______ _____ _____    ______ ____
ROOT
ATOM      1 CL   UNL     1       5.120 -12.024   0.000  0.00  0.00    -0.145 Cl
ATOM      2  H   UNL     1       6.450 -12.024   0.000  0.00  0.00    +0.145 HD
ENDROOT
TORSDOF 0