REMARK  Name = 135996
REMARK  4 active torsions:
REMARK  status: ('A' for Active; 'I' for Inactive)
REMARK    1  A    between atoms: N_1  and  C_18
REMARK    2  A    between atoms: N_2  and  C_7
REMARK    3  A    between atoms: C_4  and  O_19
REMARK    4  A    between atoms: O_19  and  C_20
REMARK                            x       y       z     vdW  Elec       q    Type
REMARK                         _______ _______ _______ _____ _____    ______ ____
ROOT
ATOM      1 BR   UNL     1      -1.297 -10.896   0.000  0.00  0.00    -0.113 Br
ATOM      2  H   UNL     1       0.213 -10.896   0.000  0.00  0.00    +0.113 HD
ENDROOT
TORSDOF 0