REMARK  Name = 13973
REMARK  4 active torsions:
REMARK  status: ('A' for Active; 'I' for Inactive)
REMARK    1  A    between atoms: C_4  and  C_18
REMARK    2  A    between atoms: C_7  and  C_16
REMARK    3  A    between atoms: C_8  and  N_17
REMARK    4  A    between atoms: C_11  and  N_15
REMARK                            x       y       z     vdW  Elec       q    Type
REMARK                         _______ _______ _______ _____ _____    ______ ____
ROOT
ATOM      1 CL   UNL     1      -5.946  -5.250   0.000  0.00  0.00    -0.145 Cl
ATOM      2  H   UNL     1      -4.616  -5.250   0.000  0.00  0.00    +0.145 HD
ENDROOT
TORSDOF 0