REMARK  Name = 170637
REMARK  6 active torsions:
REMARK  status: ('A' for Active; 'I' for Inactive)
REMARK    1  A    between atoms: N_3  and  C_7
REMARK    2  A    between atoms: N_4  and  C_11
REMARK    3  A    between atoms: C_5  and  C_16
REMARK    4  A    between atoms: C_12  and  C_19
REMARK    5  A    between atoms: C_13  and  N_17
REMARK    6  A    between atoms: N_17  and  C_18
REMARK                            x       y       z     vdW  Elec       q    Type
REMARK                         _______ _______ _______ _____ _____    ______ ____
ROOT
ATOM      8  N   UNL     1      -7.245   5.918   0.000  0.00  0.00    -0.149 NA
ATOM      9  N   UNL     1      -7.245   4.418   0.000  0.00  0.00    -0.149 NA
ENDROOT
BRANCH   8   5
ATOM      1  O   UNL     1     -12.441   8.918   0.000  0.00  0.00    -0.620 OA
ATOM      2  N   UNL     1     -11.142   8.168   0.000  0.00  0.00    -0.177 N 
ATOM      3  C   UNL     1      -9.843   8.918   0.000  0.00  0.00    +0.324 A 
ATOM      4  C   UNL     1      -8.544   8.168   0.000  0.00  0.00    +0.101 A 
ATOM      5  C   UNL     1      -8.544   6.668   0.000  0.00  0.00    +0.100 A 
ATOM      6  C   UNL     1      -9.843   5.918   0.000  0.00  0.00    +0.041 A 
ATOM      7  C   UNL     1      -9.843   4.418   0.000  0.00  0.00    +0.052 C 
ATOM     20  C   UNL     1     -11.142   6.668   0.000  0.00  0.00    +0.327 A 
ENDBRANCH   8   5
BRANCH   9  10
ATOM     10  C   UNL     1      -5.946   3.668   0.000  0.00  0.00    +0.087 A 
ATOM     11  C   UNL     1      -5.946   2.168   0.000  0.00  0.00    +0.031 A 
ATOM     12  C   UNL     1      -4.647   1.418   0.000  0.00  0.00    +0.025 A 
ATOM     13  C   UNL     1      -3.348   2.168   0.000  0.00  0.00    +0.030 A 
ATOM     17  C   UNL     1      -3.348   3.668   0.000  0.00  0.00    -0.028 A 
ATOM     18  C   UNL     1      -2.049   4.418   0.000  0.00  0.00    +0.046 C 
ATOM     19  C   UNL     1      -4.647   4.418   0.000  0.00  0.00    +0.034 A 
BRANCH  13  14
ATOM     14  N   UNL     1      -2.049   1.418   0.000  0.00  0.00    -0.347 N 
ATOM     15  H   UNL     1      -2.049   0.434   0.000  0.00  0.00    +0.146 HD
ATOM     16  C   UNL     1      -0.750   2.168   0.000  0.00  0.00    +0.125 C 
ENDBRANCH  13  14
ENDBRANCH   9  10
TORSDOF 3