REMARK  Name = 166634
REMARK  2 active torsions:
REMARK  status: ('A' for Active; 'I' for Inactive)
REMARK    1  A    between atoms: N_3  and  C_14
REMARK    2  A    between atoms: C_8  and  C_10
REMARK                            x       y       z     vdW  Elec       q    Type
REMARK                         _______ _______ _______ _____ _____    ______ ____
ROOT
ATOM      1  N   UNL     1      -6.153  -2.099   0.000  0.00  0.00    -0.225 NA
ATOM      2  C   UNL     1      -4.686  -2.410   0.000  0.00  0.00    +0.179 A 
ATOM      3  C   UNL     1      -4.222  -3.837   0.000  0.00  0.00    +0.149 A 
ATOM      4  C   UNL     1      -2.722  -3.837   0.000  0.00  0.00    +0.166 A 
ATOM      5  N   UNL     1      -1.840  -5.051   0.000  0.00  0.00    -0.340 N 
ATOM      6  H   UNL     1      -0.861  -4.948   0.000  0.00  0.00    +0.144 HD
ATOM      7  H   UNL     1      -2.241  -5.950   0.000  0.00  0.00    +0.144 HD
ATOM      8  N   UNL     1      -2.258  -2.410   0.000  0.00  0.00    -0.153 NA
ATOM      9  N   UNL     1      -5.226  -4.952   0.000  0.00  0.00    -0.246 NA
ATOM     10  C   UNL     1      -6.693  -4.640   0.000  0.00  0.00    +0.139 A 
ATOM     11  N   UNL     1      -3.472  -1.529   0.000  0.00  0.00    -0.246 N 
ATOM     12  C   UNL     1      -3.472  -0.029   0.000  0.00  0.00    +0.175 C 
ATOM     13  C   UNL     1      -7.156  -3.213   0.000  0.00  0.00    +0.112 A 
ENDROOT
BRANCH  13  14
ATOM     14  C   UNL     1      -8.624  -2.901   0.000  0.00  0.00    +0.234 C 
ATOM     15 CL   UNL     1      -8.312  -1.434   0.000  0.00  0.00    -0.077 Cl
ATOM     16 CL   UNL     1     -10.091  -2.590   0.000  0.00  0.00    -0.077 Cl
ATOM     17 CL   UNL     1      -8.935  -4.369   0.000  0.00  0.00    -0.077 Cl
ENDBRANCH  13  14
TORSDOF 1