REMARK  Name = 168225
REMARK  4 active torsions:
REMARK  status: ('A' for Active; 'I' for Inactive)
REMARK    1  A    between atoms: N_2  and  C_19
REMARK    2  A    between atoms: C_9  and  C_22
REMARK    3  A    between atoms: C_13  and  C_19
REMARK    4  A    between atoms: N_20  and  N_21
REMARK                            x       y       z     vdW  Elec       q    Type
REMARK                         _______ _______ _______ _____ _____    ______ ____
ROOT
ATOM      1  N   UNL     1      -6.535   7.718   0.000  0.00  0.00    -0.046 NA
ATOM      2  N   UNL     1      -8.034   7.718   0.000  0.00  0.00    -0.180 N 
ATOM     10  N   UNL     1      -8.498   6.291   0.000  0.00  0.00    -0.245 N 
ATOM     11  H   UNL     1      -9.925   5.828   0.000  0.00  0.00    +0.192 HD
ATOM     12  C   UNL     1      -7.285   5.410   0.000  0.00  0.00    +0.284 A 
ATOM     13  N   UNL     1      -7.285   3.910   0.000  0.00  0.00    -0.108 NA
ATOM     22  N   UNL     1      -6.071   6.291   0.000  0.00  0.00    -0.088 NA
ENDROOT
BRANCH  13  14
ATOM     14  N   UNL     1      -5.986   3.160   0.000  0.00  0.00    -0.154 NA
ATOM     15  C   UNL     1      -5.986   1.660   0.000  0.00  0.00    +0.143 C 
BRANCH  15  16
ATOM     16  C   UNL     1      -4.686   0.910   0.000  0.00  0.00    -0.005 A 
ATOM     17  C   UNL     1      -4.686  -0.590   0.000  0.00  0.00    +0.009 A 
ATOM     18  C   UNL     1      -3.387  -1.340   0.000  0.00  0.00    +0.001 A 
ATOM     19  C   UNL     1      -2.088  -0.590   0.000  0.00  0.00    +0.000 A 
ATOM     20  C   UNL     1      -2.088   0.910   0.000  0.00  0.00    +0.001 A 
ATOM     21  C   UNL     1      -3.387   1.660   0.000  0.00  0.00    +0.009 A 
ENDBRANCH  15  16
ENDBRANCH  13  14
BRANCH   2   3
ATOM      3  C   UNL     1      -8.916   8.931   0.000  0.00  0.00    +0.201 C 
BRANCH   3   4
ATOM      4  C   UNL     1     -10.408   8.775   0.000  0.00  0.00    -0.024 A 
ATOM      5  C   UNL     1     -11.290   9.988   0.000  0.00  0.00    +0.005 A 
ATOM      6  C   UNL     1     -12.781   9.832   0.000  0.00  0.00    +0.000 A 
ATOM      7  C   UNL     1     -13.392   8.461   0.000  0.00  0.00    +0.000 A 
ATOM      8  C   UNL     1     -12.510   7.248   0.000  0.00  0.00    +0.000 A 
ATOM      9  C   UNL     1     -11.018   7.404   0.000  0.00  0.00    +0.005 A 
ENDBRANCH   3   4
ENDBRANCH   2   3
TORSDOF 4