REMARK  Name = 16722
REMARK  9 active torsions:
REMARK  status: ('A' for Active; 'I' for Inactive)
REMARK    1  A    between atoms: C_2  and  O_20
REMARK    2  A    between atoms: C_3  and  C_18
REMARK    3  A    between atoms: C_4  and  O_22
REMARK    4  A    between atoms: C_8  and  O_13
REMARK    5  A    between atoms: C_9  and  C_16
REMARK    6  A    between atoms: C_11  and  O_15
REMARK    7  A    between atoms: O_13  and  C_14
REMARK    8  A    between atoms: C_16  and  C_18
REMARK    9  A    between atoms: O_20  and  C_21
REMARK                            x       y       z     vdW  Elec       q    Type
REMARK                         _______ _______ _______ _____ _____    ______ ____
ROOT
ATOM     11  C   UNL     1      -8.169  -0.649   0.000  0.00  0.00    +0.233 C 
ATOM     12  O   UNL     1      -9.468  -1.400   0.000  0.00  0.00    -0.283 OA
ENDROOT
BRANCH  11  10
ATOM      1  C   UNL     1      -5.571  -0.649   0.000  0.00  0.00    +0.061 A 
ATOM      2  C   UNL     1      -4.272  -1.400   0.000  0.00  0.00    +0.162 A 
ATOM      5  C   UNL     1      -4.272  -2.900   0.000  0.00  0.00    +0.158 A 
ATOM      8  C   UNL     1      -5.571  -3.650   0.000  0.00  0.00    +0.050 A 
ATOM      9  C   UNL     1      -6.870  -2.900   0.000  0.00  0.00    +0.015 A 
ATOM     10  C   UNL     1      -6.870  -1.400   0.000  0.00  0.00    +0.029 A 
BRANCH   2   3
ATOM      3  O   UNL     1      -2.973  -0.649   0.000  0.00  0.00    -0.491 OA
ATOM      4  C   UNL     1      -1.674  -1.400   0.000  0.00  0.00    +0.277 C 
ENDBRANCH   2   3
BRANCH   5   6
ATOM      6  O   UNL     1      -2.973  -3.650   0.000  0.00  0.00    -0.503 OA
ATOM      7  H   UNL     1      -2.973  -4.586   0.000  0.00  0.00    +0.292 HD
ENDBRANCH   5   6
ENDBRANCH  11  10
BRANCH  11  13
ATOM     13  C   UNL     1      -8.169   0.851   0.000  0.00  0.00    +0.233 C 
ATOM     14  O   UNL     1      -6.870   1.601   0.000  0.00  0.00    -0.283 OA
BRANCH  13  15
ATOM     15  C   UNL     1      -9.468   1.601   0.000  0.00  0.00    +0.029 A 
ATOM     16  C   UNL     1     -10.767   0.851   0.000  0.00  0.00    +0.015 A 
ATOM     17  C   UNL     1     -12.066   1.601   0.000  0.00  0.00    +0.050 A 
ATOM     18  C   UNL     1     -12.066   3.100   0.000  0.00  0.00    +0.158 A 
ATOM     21  C   UNL     1     -10.767   3.850   0.000  0.00  0.00    +0.162 A 
ATOM     24  C   UNL     1      -9.468   3.100   0.000  0.00  0.00    +0.061 A 
BRANCH  18  19
ATOM     19  O   UNL     1     -13.365   3.850   0.000  0.00  0.00    -0.503 OA
ATOM     20  H   UNL     1     -13.365   4.787   0.000  0.00  0.00    +0.292 HD
ENDBRANCH  18  19
BRANCH  21  22
ATOM     22  O   UNL     1     -10.767   5.351   0.000  0.00  0.00    -0.491 OA
ATOM     23  C   UNL     1     -12.066   6.101   0.000  0.00  0.00    +0.277 C 
ENDBRANCH  21  22
ENDBRANCH  13  15
ENDBRANCH  11  13
TORSDOF 7