REMARK  Name = 165599
REMARK  6 active torsions:
REMARK  status: ('A' for Active; 'I' for Inactive)
REMARK    1  A    between atoms: C_3  and  S_11
REMARK    2  A    between atoms: C_5  and  N_10
REMARK    3  A    between atoms: C_7  and  C_9
REMARK    4  A    between atoms: S_11  and  N_14
REMARK    5  A    between atoms: C_15  and  S_16
REMARK    6  A    between atoms: S_16  and  C_17
REMARK                            x       y       z     vdW  Elec       q    Type
REMARK                         _______ _______ _______ _____ _____    ______ ____
ROOT
ATOM      1  C   UNL     1       4.071   6.449   0.000  0.00  0.00    +0.030 A 
ATOM      2  C   UNL     1       5.370   5.699   0.000  0.00  0.00    +0.109 A 
ATOM     13  C   UNL     1       5.370   4.199   0.000  0.00  0.00    +0.030 A 
ATOM     14  C   UNL     1       4.071   3.449   0.000  0.00  0.00    +0.025 A 
ATOM     15  C   UNL     1       2.772   4.199   0.000  0.00  0.00    +0.033 A 
ATOM     21  C   UNL     1       2.772   5.699   0.000  0.00  0.00    +0.025 A 
ENDROOT
BRANCH  15  16
ATOM     16  N   UNL     1       1.473   3.449   0.000  0.00  0.00    -0.286 N 
ATOM     17  H   UNL     1       1.473   2.464   0.000  0.00  0.00    +0.155 HD
ATOM     18  C   UNL     1       0.174   4.199   0.000  0.00  0.00    +0.214 C 
ATOM     19  C   UNL     1      -1.125   3.449   0.000  0.00  0.00    +0.109 C 
ATOM     20  O   UNL     1       0.174   5.699   0.000  0.00  0.00    -0.276 OA
ENDBRANCH  15  16
BRANCH   2   3
ATOM      3  S   UNL     1       6.669   6.449   0.000  0.00  0.00    +0.074 S 
ATOM     11  O   UNL     1       7.419   5.149   0.000  0.00  0.00    -0.150 OA
ATOM     12  O   UNL     1       5.919   7.748   0.000  0.00  0.00    -0.150 OA
BRANCH   3   4
ATOM      4  N   UNL     1       7.968   7.199   0.000  0.00  0.00    -0.194 N 
ATOM      5  H   UNL     1       8.821   6.706   0.000  0.00  0.00    +0.176 HD
ATOM      6  C   UNL     1       7.968   8.699   0.000  0.00  0.00    +0.166 C 
ATOM      7  N   UNL     1       9.267   9.449   0.000  0.00  0.00    -0.279 NA
ATOM      8  H   UNL     1      10.120   8.956   0.000  0.00  0.00    +0.189 HD
BRANCH   6   9
ATOM      9  S   UNL     1       6.669   9.449   0.000  0.00  0.00    -0.093 S 
ATOM     10  C   UNL     1       6.669  10.949   0.000  0.00  0.00    +0.093 C 
ENDBRANCH   6   9
ENDBRANCH   3   4
ENDBRANCH   2   3
TORSDOF 4