REMARK  Name = 164880
REMARK  6 active torsions:
REMARK  status: ('A' for Active; 'I' for Inactive)
REMARK    1  A    between atoms: C_4  and  O_21
REMARK    2  A    between atoms: C_5  and  O_19
REMARK    3  A    between atoms: C_7  and  C_17
REMARK    4  A    between atoms: C_8  and  C_18
REMARK    5  A    between atoms: O_19  and  C_20
REMARK    6  A    between atoms: O_21  and  C_22
REMARK                            x       y       z     vdW  Elec       q    Type
REMARK                         _______ _______ _______ _____ _____    ______ ____
ROOT
ATOM     11  C   UNL     1      -4.172  -3.275   0.000  0.00  0.00    +0.029 C 
ATOM     12  C   UNL     1      -2.873  -2.525   0.000  0.00  0.00    +0.014 C 
ENDROOT
BRANCH  11  10
ATOM      1  N   UNL     1      -2.873  -5.524   0.000  0.00  0.00    -0.255 NA
ATOM      2  C   UNL     1      -2.873  -7.024   0.000  0.00  0.00    +0.112 A 
ATOM      3  C   UNL     1      -4.172  -7.774   0.000  0.00  0.00    +0.028 A 
ATOM      4  C   UNL     1      -5.471  -7.024   0.000  0.00  0.00    -0.014 A 
ATOM      5  C   UNL     1      -6.770  -7.774   0.000  0.00  0.00    +0.008 A 
ATOM      6  C   UNL     1      -8.069  -7.024   0.000  0.00  0.00    +0.001 A 
ATOM      7  C   UNL     1      -8.069  -5.524   0.000  0.00  0.00    +0.001 A 
ATOM      8  C   UNL     1      -6.770  -4.774   0.000  0.00  0.00    +0.010 A 
ATOM      9  C   UNL     1      -5.471  -5.524   0.000  0.00  0.00    +0.008 A 
ATOM     10  C   UNL     1      -4.172  -4.774   0.000  0.00  0.00    +0.072 A 
ENDBRANCH  11  10
BRANCH  12  13
ATOM     13  C   UNL     1      -2.873  -1.025   0.000  0.00  0.00    +0.020 A 
ATOM     14  C   UNL     1      -1.574  -0.275   0.000  0.00  0.00    +0.012 A 
ATOM     15  C   UNL     1      -1.574   1.226   0.000  0.00  0.00    +0.004 A 
ATOM     16  C   UNL     1      -2.873   1.976   0.000  0.00  0.00    +0.049 A 
ATOM     17  C   UNL     1      -4.172   1.226   0.000  0.00  0.00    +0.162 A 
ATOM     20  C   UNL     1      -4.172  -0.275   0.000  0.00  0.00    +0.169 A 
BRANCH  17  18
ATOM     18  O   UNL     1      -5.471   1.976   0.000  0.00  0.00    -0.491 OA
ATOM     19  C   UNL     1      -6.770   1.226   0.000  0.00  0.00    +0.277 C 
ENDBRANCH  17  18
BRANCH  20  21
ATOM     21  O   UNL     1      -5.471  -1.025   0.000  0.00  0.00    -0.491 OA
ATOM     22  C   UNL     1      -6.770  -0.275   0.000  0.00  0.00    +0.277 C 
ENDBRANCH  20  21
ENDBRANCH  12  13
TORSDOF 4