REMARK  Name = 164676
REMARK  14 active torsions:
REMARK  status: ('A' for Active; 'I' for Inactive)
REMARK    1  A    between atoms: N_3  and  C_5
REMARK    2  A    between atoms: N_3  and  C_18
REMARK    3  A    between atoms: N_3  and  S_19
REMARK    4  A    between atoms: C_4  and  C_16
REMARK    5  A    between atoms: C_6  and  C_14
REMARK    6  A    between atoms: C_7  and  C_15
REMARK    7  A    between atoms: C_10  and  S_19
REMARK    8  A    between atoms: C_11  and  C_29
REMARK    9  A    between atoms: C_18  and  C_22
REMARK   10  A    between atoms: C_22  and  C_23
REMARK   11  A    between atoms: C_23  and  C_24
REMARK   12  A    between atoms: C_24  and  O_26
REMARK   13  A    between atoms: O_26  and  C_27
REMARK   14  A    between atoms: C_27  and  C_28
REMARK                            x       y       z     vdW  Elec       q    Type
REMARK                         _______ _______ _______ _____ _____    ______ ____
ROOT
ATOM     11  N   UNL     1       8.774   0.707   0.000  0.00  0.00    -0.186 N 
ENDROOT
BRANCH  11  10
ATOM      1  N   UNL     1      11.633  -1.817   0.000  0.00  0.00    -0.345 N 
ATOM      2  H   UNL     1      12.637  -0.703   0.000  0.00  0.00    +0.167 HD
ATOM      3  C   UNL     1      11.945  -3.285   0.000  0.00  0.00    +0.019 A 
ATOM      4  C   UNL     1      13.315  -3.895   0.000  0.00  0.00    +0.063 C 
ATOM      5  C   UNL     1      10.646  -4.035   0.000  0.00  0.00    -0.011 A 
ATOM      6  C   UNL     1      10.489  -5.527   0.000  0.00  0.00    +0.047 C 
ATOM      7  C   UNL     1       9.531  -3.031   0.000  0.00  0.00    +0.096 A 
ATOM     10  C   UNL     1      10.141  -1.661   0.000  0.00  0.00    +0.137 A 
BRANCH   7   8
ATOM      8  C   UNL     1       8.064  -3.343   0.000  0.00  0.00    +0.103 C 
ATOM      9  N   UNL     1       6.596  -3.655   0.000  0.00  0.00    -0.191 NA
ENDBRANCH   7   8
ENDBRANCH  11  10
BRANCH  11  12
ATOM     12  S   UNL     1      10.141   3.074   0.000  0.00  0.00    +0.076 S 
ATOM     13  O   UNL     1      10.891   4.373   0.000  0.00  0.00    -0.150 OA
ATOM     14  O   UNL     1       8.842   3.824   0.000  0.00  0.00    -0.150 OA
BRANCH  12  15
ATOM     15  C   UNL     1      11.440   2.324   0.000  0.00  0.00    +0.109 A 
ATOM     16  C   UNL     1      11.440   0.824   0.000  0.00  0.00    +0.029 A 
ATOM     17  C   UNL     1      12.739   0.074   0.000  0.00  0.00    +0.005 A 
ATOM     18  C   UNL     1      14.038   0.824   0.000  0.00  0.00    -0.050 A 
ATOM     19  C   UNL     1      15.337   0.074   0.000  0.00  0.00    +0.044 C 
ATOM     20  C   UNL     1      14.038   2.324   0.000  0.00  0.00    +0.005 A 
ATOM     21  C   UNL     1      12.739   3.074   0.000  0.00  0.00    +0.029 A 
ENDBRANCH  12  15
ENDBRANCH  11  12
BRANCH  11  22
ATOM     22  C   UNL     1       7.274   0.707   0.000  0.00  0.00    +0.134 C 
BRANCH  22  23
ATOM     23  C   UNL     1       6.524   2.006   0.000  0.00  0.00    +0.032 C 
BRANCH  23  24
ATOM     24  C   UNL     1       5.024   2.006   0.000  0.00  0.00    +0.122 C 
BRANCH  24  25
ATOM     25  C   UNL     1       4.274   3.305   0.000  0.00  0.00    +0.307 C 
ATOM     29  O   UNL     1       2.774   3.305   0.000  0.00  0.00    -0.251 OA
BRANCH  25  26
ATOM     26  O   UNL     1       5.024   4.604   0.000  0.00  0.00    -0.465 OA
BRANCH  26  27
ATOM     27  C   UNL     1       4.274   5.903   0.000  0.00  0.00    +0.229 C 
ATOM     28  C   UNL     1       5.024   7.202   0.000  0.00  0.00    +0.048 C 
ENDBRANCH  26  27
ENDBRANCH  25  26
ENDBRANCH  24  25
ENDBRANCH  23  24
ENDBRANCH  22  23
ENDBRANCH  11  22
TORSDOF 10