REMARK  Name = 165701
REMARK  4 active torsions:
REMARK  status: ('A' for Active; 'I' for Inactive)
REMARK    1  A    between atoms: C_10  and  C_13
REMARK    2  A    between atoms: C_13  and  S_14
REMARK    3  A    between atoms: S_14  and  C_15
REMARK    4  A    between atoms: C_18  and  N_21
REMARK                            x       y       z     vdW  Elec       q    Type
REMARK                         _______ _______ _______ _____ _____    ______ ____
ROOT
ATOM      1  C   UNL     1     -11.624   4.941   0.000  0.00  0.00    +0.030 A 
ATOM      2  C   UNL     1     -10.874   3.642   0.000  0.00  0.00    +0.090 A 
ATOM      3  N   UNL     1      -9.425   3.254   0.000  0.00  0.00    -0.231 NA
ATOM      4  C   UNL     1      -9.425   1.754   0.000  0.00  0.00    +0.121 A 
ATOM     16  N   UNL     1     -10.874   1.044   0.000  0.00  0.00    -0.327 N 
ATOM     17  C   UNL     1     -11.624  -0.255   0.000  0.00  0.00    +0.124 C 
ATOM     18  C   UNL     1     -13.124  -0.255   0.000  0.00  0.00    +0.026 C 
ATOM     19  C   UNL     1     -13.874   1.044   0.000  0.00  0.00    +0.039 C 
ATOM     20  C   UNL     1     -13.124   2.343   0.000  0.00  0.00    -0.022 A 
ATOM     21  C   UNL     1     -13.874   3.642   0.000  0.00  0.00    +0.006 A 
ATOM     22  C   UNL     1     -11.624   2.343   0.000  0.00  0.00    +0.072 A 
ATOM     23  C   UNL     1     -13.124   4.941   0.000  0.00  0.00    +0.002 A 
ENDROOT
BRANCH   4   5
ATOM      5  C   UNL     1      -8.152   0.960   0.000  0.00  0.00    +0.148 C 
BRANCH   5   6
ATOM      6  S   UNL     1      -6.829   1.666   0.000  0.00  0.00    -0.117 S 
BRANCH   6   7
ATOM      7  C   UNL     1      -5.556   0.872   0.000  0.00  0.00    +0.008 A 
ATOM      8  C   UNL     1      -4.232   1.577   0.000  0.00  0.00    +0.016 A 
ATOM      9  C   UNL     1      -2.959   0.784   0.000  0.00  0.00    +0.024 A 
ATOM     10  C   UNL     1      -3.010  -0.716   0.000  0.00  0.00    +0.025 A 
ATOM     14  C   UNL     1      -4.334  -1.421   0.000  0.00  0.00    +0.024 A 
ATOM     15  C   UNL     1      -5.607  -0.627   0.000  0.00  0.00    +0.016 A 
BRANCH  10  11
ATOM     11  N   UNL     1      -1.737  -1.509   0.000  0.00  0.00    -0.358 N 
ATOM     12  H   UNL     1      -0.869  -1.046   0.000  0.00  0.00    +0.142 HD
ATOM     13  H   UNL     1      -1.771  -2.493   0.000  0.00  0.00    +0.142 HD
ENDBRANCH  10  11
ENDBRANCH   6   7
ENDBRANCH   5   6
ENDBRANCH   4   5
TORSDOF 4