REMARK  Name = 17355
REMARK  13 active torsions:
REMARK  status: ('A' for Active; 'I' for Inactive)
REMARK    1  A    between atoms: C_2  and  C_14
REMARK    2  A    between atoms: C_3  and  C_13
REMARK    3  A    between atoms: C_4  and  C_5
REMARK    4  A    between atoms: C_8  and  O_25
REMARK    5  A    between atoms: C_10  and  C_20
REMARK    6  A    between atoms: C_12  and  C_19
REMARK    7  A    between atoms: C_14  and  O_16
REMARK    8  A    between atoms: O_16  and  C_17
REMARK    9  A    between atoms: C_17  and  C_18
REMARK   10  A    between atoms: C_20  and  O_22
REMARK   11  A    between atoms: O_22  and  C_23
REMARK   12  A    between atoms: C_23  and  C_24
REMARK   13  A    between atoms: O_25  and  C_26
REMARK                            x       y       z     vdW  Elec       q    Type
REMARK                         _______ _______ _______ _____ _____    ______ ____
ROOT
ATOM      1  N   UNL     1      -2.873   5.524   0.000  0.00  0.00    -0.255 NA
ATOM      2  C   UNL     1      -1.574   4.774   0.000  0.00  0.00    +0.053 A 
ATOM      3  C   UNL     1      -1.574   3.275   0.000  0.00  0.00    +0.066 C 
ATOM      4  C   UNL     1      -0.275   5.524   0.000  0.00  0.00    +0.088 A 
ATOM     10  C   UNL     1      -0.275   7.024   0.000  0.00  0.00    +0.014 A 
ATOM     19  C   UNL     1      -1.574   7.774   0.000  0.00  0.00    +0.088 A 
ATOM     25  C   UNL     1      -2.873   7.024   0.000  0.00  0.00    +0.053 A 
ATOM     26  C   UNL     1      -4.172   7.774   0.000  0.00  0.00    +0.066 C 
ENDROOT
BRANCH  10  11
ATOM     11  C   UNL     1       1.025   7.774   0.000  0.00  0.00    -0.016 A 
ATOM     12  C   UNL     1       1.025   9.274   0.000  0.00  0.00    +0.012 A 
ATOM     13  C   UNL     1       2.324  10.025   0.000  0.00  0.00    +0.046 A 
ATOM     14  C   UNL     1       3.623   9.274   0.000  0.00  0.00    +0.120 A 
ATOM     17  C   UNL     1       3.623   7.774   0.000  0.00  0.00    +0.046 A 
ATOM     18  C   UNL     1       2.324   7.024   0.000  0.00  0.00    +0.012 A 
BRANCH  14  15
ATOM     15  O   UNL     1       4.922  10.025   0.000  0.00  0.00    -0.495 OA
ATOM     16  C   UNL     1       4.922  11.525   0.000  0.00  0.00    +0.277 C 
ENDBRANCH  14  15
ENDBRANCH  10  11
BRANCH   4   5
ATOM      5  C   UNL     1       1.025   4.774   0.000  0.00  0.00    +0.342 C 
ATOM      9  O   UNL     1       2.324   5.524   0.000  0.00  0.00    -0.245 OA
BRANCH   5   6
ATOM      6  O   UNL     1       1.025   3.275   0.000  0.00  0.00    -0.461 OA
BRANCH   6   7
ATOM      7  C   UNL     1      -0.275   2.525   0.000  0.00  0.00    +0.229 C 
ATOM      8  C   UNL     1      -0.275   1.025   0.000  0.00  0.00    +0.048 C 
ENDBRANCH   6   7
ENDBRANCH   5   6
ENDBRANCH   4   5
BRANCH  19  20
ATOM     20  C   UNL     1      -1.574   9.274   0.000  0.00  0.00    +0.342 C 
ATOM     24  O   UNL     1      -0.275  10.025   0.000  0.00  0.00    -0.245 OA
BRANCH  20  21
ATOM     21  O   UNL     1      -2.873  10.025   0.000  0.00  0.00    -0.461 OA
BRANCH  21  22
ATOM     22  C   UNL     1      -4.172   9.274   0.000  0.00  0.00    +0.229 C 
ATOM     23  C   UNL     1      -5.471  10.025   0.000  0.00  0.00    +0.048 C 
ENDBRANCH  21  22
ENDBRANCH  20  21
ENDBRANCH  19  20
TORSDOF 8