REMARK  Name = 164464
REMARK  3 active torsions:
REMARK  status: ('A' for Active; 'I' for Inactive)
REMARK    1  A    between atoms: C_4  and  C_18
REMARK    2  A    between atoms: C_10  and  N_16
REMARK    3  A    between atoms: C_11  and  C_14
REMARK                            x       y       z     vdW  Elec       q    Type
REMARK                         _______ _______ _______ _____ _____    ______ ____
ROOT
ATOM      8  C   UNL     1      -4.647  -3.000   0.000  0.00  0.00    +0.250 C 
ATOM      9  O   UNL     1      -4.647  -1.500   0.000  0.00  0.00    -0.270 OA
ATOM     10  N   UNL     1      -5.946  -3.750   0.000  0.00  0.00    -0.281 N 
ATOM     11  H   UNL     1      -5.946  -4.734   0.000  0.00  0.00    +0.155 HD
ENDROOT
BRANCH   8   7
ATOM      1 CL   UNL     1      -4.647  -6.000   0.000  0.00  0.00    -0.083 Cl
ATOM      2  C   UNL     1      -3.348  -5.250   0.000  0.00  0.00    +0.053 A 
ATOM      3  C   UNL     1      -2.049  -6.000   0.000  0.00  0.00    +0.021 A 
ATOM      4  C   UNL     1      -0.750  -5.250   0.000  0.00  0.00    +0.001 A 
ATOM      5  C   UNL     1      -0.750  -3.750   0.000  0.00  0.00    +0.001 A 
ATOM      6  C   UNL     1      -2.049  -3.000   0.000  0.00  0.00    +0.014 A 
ATOM      7  C   UNL     1      -3.348  -3.750   0.000  0.00  0.00    +0.055 A 
ENDBRANCH   8   7
BRANCH  10  12
ATOM     12  C   UNL     1      -7.245  -3.000   0.000  0.00  0.00    +0.046 A 
ATOM     13  C   UNL     1      -8.544  -3.750   0.000  0.00  0.00    +0.058 A 
ATOM     19  C   UNL     1      -9.843  -3.000   0.000  0.00  0.00    +0.015 A 
ATOM     20  C   UNL     1      -9.843  -1.500   0.000  0.00  0.00    +0.001 A 
ATOM     21  C   UNL     1      -8.544  -0.750   0.000  0.00  0.00    +0.002 A 
ATOM     22  C   UNL     1      -7.245  -1.500   0.000  0.00  0.00    +0.024 A 
BRANCH  13  14
ATOM     14  C   UNL     1      -8.544  -5.250   0.000  0.00  0.00    +0.243 C 
ATOM     15  N   UNL     1      -9.843  -6.000   0.000  0.00  0.00    -0.325 N 
ATOM     16  H   UNL     1      -9.843  -6.984   0.000  0.00  0.00    +0.145 HD
ATOM     17  H   UNL     1     -10.696  -5.508   0.000  0.00  0.00    +0.145 HD
ATOM     18  O   UNL     1      -7.245  -6.000   0.000  0.00  0.00    -0.270 OA
ENDBRANCH  13  14
ENDBRANCH  10  12
TORSDOF 3