REMARK  Name = 17128
REMARK  5 active torsions:
REMARK  status: ('A' for Active; 'I' for Inactive)
REMARK    1  A    between atoms: C_5  and  C_25
REMARK    2  A    between atoms: C_7  and  C_24
REMARK    3  A    between atoms: C_9  and  O_23
REMARK    4  A    between atoms: C_14  and  C_22
REMARK    5  A    between atoms: C_25  and  C_27
REMARK                            x       y       z     vdW  Elec       q    Type
REMARK                         _______ _______ _______ _____ _____    ______ ____
ROOT
ATOM      1  O   UNL     1      -6.718 -12.465   0.000  0.00  0.00    -0.293 OA
ATOM      2  C   UNL     1      -5.715 -11.350   0.000  0.00  0.00    +0.156 C 
ATOM      3  C   UNL     1      -4.247 -11.662   0.000  0.00  0.00    +0.046 C 
ATOM      4  C   UNL     1      -3.244 -10.547   0.000  0.00  0.00    -0.057 C 
ATOM      5  C   UNL     1      -1.776 -10.859   0.000  0.00  0.00    +0.032 C 
ATOM      6  C   UNL     1      -0.773  -9.745   0.000  0.00  0.00    +0.011 C 
ATOM      7  C   UNL     1      -1.236  -8.318   0.000  0.00  0.00    +0.033 C 
ATOM      8  C   UNL     1      -2.703  -8.006   0.000  0.00  0.00    +0.149 C 
ATOM      9  C   UNL     1      -3.167  -6.579   0.000  0.00  0.00    +0.153 C 
ATOM     12  C   UNL     1      -2.163  -5.465   0.000  0.00  0.00    +0.042 C 
ATOM     13  C   UNL     1      -0.696  -5.777   0.000  0.00  0.00    -0.017 C 
ATOM     14  C   UNL     1      -1.008  -4.309   0.000  0.00  0.00    +0.012 C 
ATOM     15  C   UNL     1       0.517  -4.895   0.000  0.00  0.00    +0.061 C 
ATOM     19  C   UNL     1       1.731  -5.777   0.000  0.00  0.00    +0.012 C 
ATOM     20  C   UNL     1       1.268  -7.203   0.000  0.00  0.00    +0.005 C 
ATOM     21  F   UNL     1      -2.240  -9.433   0.000  0.00  0.00    -0.238 F 
ATOM     22  C   UNL     1      -0.233  -7.203   0.000  0.00  0.00    +0.002 C 
ATOM     23  C   UNL     1      -3.707  -9.121   0.000  0.00  0.00    +0.026 C 
ATOM     24  C   UNL     1      -4.171  -7.694   0.000  0.00  0.00    +0.019 C 
ATOM     25  C   UNL     1      -5.174  -8.809   0.000  0.00  0.00    +0.022 C 
ATOM     26  C   UNL     1      -6.178  -9.924   0.000  0.00  0.00    +0.080 C 
ENDROOT
BRANCH  15  16
ATOM     16  C   UNL     1       0.517  -3.395   0.000  0.00  0.00    +0.134 C 
ATOM     17  C   UNL     1       1.817  -2.645   0.000  0.00  0.00    +0.086 C 
ATOM     18  O   UNL     1      -0.781  -2.645   0.000  0.00  0.00    -0.297 OA
ENDBRANCH  15  16
BRANCH   9  10
ATOM     10  O   UNL     1      -4.634  -6.268   0.000  0.00  0.00    -0.389 OA
ATOM     11  H   UNL     1      -4.934  -5.345   0.000  0.00  0.00    +0.210 HD
ENDBRANCH   9  10
TORSDOF 2