REMARK  Name = 170578
REMARK  1 active torsions:
REMARK  status: ('A' for Active; 'I' for Inactive)
REMARK    1  A    between atoms: C_5  and  N_15
REMARK                            x       y       z     vdW  Elec       q    Type
REMARK                         _______ _______ _______ _____ _____    ______ ____
ROOT
ATOM      1  O   UNL     1      -6.973  -2.249   0.000  0.00  0.00    -0.247 OA
ATOM      2  S   UNL     1      -6.510  -3.676   0.000  0.00  0.00    +0.087 S 
ATOM      3  C   UNL     1      -7.391  -4.889   0.000  0.00  0.00    +0.051 A 
ATOM      4  C   UNL     1      -8.883  -5.046   0.000  0.00  0.00    +0.018 A 
ATOM      5  C   UNL     1      -9.493  -6.416   0.000  0.00  0.00    +0.001 A 
ATOM      6  C   UNL     1      -8.612  -7.630   0.000  0.00  0.00    +0.001 A 
ATOM      7  C   UNL     1      -7.120  -7.473   0.000  0.00  0.00    +0.010 A 
ATOM      8  C   UNL     1      -6.510  -6.103   0.000  0.00  0.00    -0.001 A 
ATOM      9  C   UNL     1      -5.083  -5.639   0.000  0.00  0.00    -0.000 A 
ATOM     10  C   UNL     1      -3.784  -6.389   0.000  0.00  0.00    +0.016 A 
ATOM     11  C   UNL     1      -2.485  -5.639   0.000  0.00  0.00    +0.085 A 
ATOM     12  C   UNL     1      -2.485  -4.139   0.000  0.00  0.00    +0.274 A 
ATOM     16  C   UNL     1      -3.784  -3.389   0.000  0.00  0.00    +0.102 A 
ATOM     17  C   UNL     1      -5.083  -4.139   0.000  0.00  0.00    +0.058 A 
ENDROOT
BRANCH  12  13
ATOM     13  N   UNL     1      -1.186  -3.389   0.000  0.00  0.00    +0.080 N 
ATOM     14  O   UNL     1      -1.186  -1.889   0.000  0.00  0.00    +0.041 OA
ATOM     15  O   UNL     1       0.113  -4.139   0.000  0.00  0.00    -0.576 OA
ENDBRANCH  12  13
TORSDOF 1