REMARK  Name = 169566
REMARK  0 active torsions:
REMARK  status: ('A' for Active; 'I' for Inactive)
REMARK                            x       y       z     vdW  Elec       q    Type
REMARK                         _______ _______ _______ _____ _____    ______ ____
ROOT
ATOM      1  N   UNL     1       0.750   4.140   0.000  0.00  0.00    -0.260 NA
ATOM      2  C   UNL     1       0.750   2.640   0.000  0.00  0.00    +0.129 A 
ATOM      3  C   UNL     1       2.049   1.890   0.000  0.00  0.00    +0.113 A 
ATOM      4  N   UNL     1       3.348   2.640   0.000  0.00  0.00    -0.293 N 
ATOM      5  C   UNL     1       4.775   2.177   0.000  0.00  0.00    +0.163 A 
ATOM      6  S   UNL     1       5.238   0.750   0.000  0.00  0.00    -0.013 S 
ATOM      7  N   UNL     1       5.656   3.390   0.000  0.00  0.00    -0.339 N 
ATOM      8  H   UNL     1       7.156   3.390   0.000  0.00  0.00    +0.167 HD
ATOM      9  C   UNL     1       4.775   4.604   0.000  0.00  0.00    +0.112 A 
ATOM     10  C   UNL     1       3.348   4.140   0.000  0.00  0.00    +0.082 A 
ATOM     11  C   UNL     1       2.049   4.890   0.000  0.00  0.00    +0.138 A 
ENDROOT
TORSDOF 0