REMARK  Name = 166846
REMARK  7 active torsions:
REMARK  status: ('A' for Active; 'I' for Inactive)
REMARK    1  A    between atoms: N_2  and  C_12
REMARK    2  A    between atoms: C_8  and  C_10
REMARK    3  A    between atoms: C_12  and  C_13
REMARK    4  A    between atoms: N_15  and  C_16
REMARK    5  A    between atoms: N_15  and  C_18
REMARK    6  A    between atoms: C_16  and  C_17
REMARK    7  A    between atoms: C_18  and  C_19
REMARK                            x       y       z     vdW  Elec       q    Type
REMARK                         _______ _______ _______ _____ _____    ______ ____
ROOT
ATOM      1  N   UNL     1       5.946   2.250   0.000  0.00  0.00    -0.178 NA
ATOM      2  C   UNL     1       7.245   3.000   0.000  0.00  0.00    +0.351 A 
ATOM      3  O   UNL     1       8.544   2.250   0.000  0.00  0.00    -0.244 OA
ATOM      4  N   UNL     1       7.245   4.500   0.000  0.00  0.00    -0.290 N 
ATOM     13  C   UNL     1       5.946   5.250   0.000  0.00  0.00    +0.094 A 
ATOM     14  C   UNL     1       4.647   4.500   0.000  0.00  0.00    +0.062 A 
ATOM     15  C   UNL     1       4.647   3.000   0.000  0.00  0.00    +0.132 A 
ATOM     16  N   UNL     1       3.348   2.250   0.000  0.00  0.00    -0.270 N 
ATOM     17  H   UNL     1       3.348   1.266   0.000  0.00  0.00    +0.156 HD
ATOM     18  C   UNL     1       2.049   3.000   0.000  0.00  0.00    +0.215 C 
ATOM     19  C   UNL     1       0.750   2.250   0.000  0.00  0.00    +0.109 C 
ATOM     20  O   UNL     1       2.049   4.500   0.000  0.00  0.00    -0.276 OA
ENDROOT
BRANCH   4   5
ATOM      5  C   UNL     1       8.544   5.250   0.000  0.00  0.00    +0.222 C 
BRANCH   5   6
ATOM      6  C   UNL     1       8.544   6.750   0.000  0.00  0.00    +0.235 C 
ATOM      7  N   UNL     1       7.245   7.500   0.000  0.00  0.00    -0.301 N 
ATOM     12  O   UNL     1       9.843   7.500   0.000  0.00  0.00    -0.274 OA
BRANCH   7   8
ATOM      8  C   UNL     1       5.946   6.750   0.000  0.00  0.00    +0.104 C 
ATOM      9  C   UNL     1       4.647   7.500   0.000  0.00  0.00    +0.024 C 
ENDBRANCH   7   8
BRANCH   7  10
ATOM     10  C   UNL     1       7.245   9.000   0.000  0.00  0.00    +0.104 C 
ATOM     11  C   UNL     1       5.946   9.750   0.000  0.00  0.00    +0.024 C 
ENDBRANCH   7  10
ENDBRANCH   5   6
ENDBRANCH   4   5
TORSDOF 4