REMARK  Name = 168027
REMARK  18 active torsions:
REMARK  status: ('A' for Active; 'I' for Inactive)
REMARK    1  A    between atoms: O_1  and  C_11
REMARK    2  A    between atoms: O_1  and  C_19
REMARK    3  A    between atoms: O_2  and  C_15
REMARK    4  A    between atoms: O_2  and  C_21
REMARK    5  A    between atoms: C_4  and  C_19
REMARK    6  A    between atoms: C_4  and  C_21
REMARK    7  A    between atoms: C_9  and  C_23
REMARK    8  A    between atoms: C_9  and  C_25
REMARK    9  A    between atoms: C_11  and  C_12
REMARK   10  A    between atoms: C_11  and  C_13
REMARK   11  A    between atoms: C_11  and  C_14
REMARK   12  A    between atoms: C_15  and  C_16
REMARK   13  A    between atoms: C_15  and  C_17
REMARK   14  A    between atoms: C_15  and  C_18
REMARK   15  A    between atoms: C_23  and  O_27
REMARK   16  A    between atoms: C_25  and  O_29
REMARK   17  A    between atoms: O_27  and  C_28
REMARK   18  A    between atoms: O_29  and  C_30
REMARK                            x       y       z     vdW  Elec       q    Type
REMARK                         _______ _______ _______ _____ _____    ______ ____
ROOT
ATOM      4  C   UNL     1      -8.478   4.089   0.000  0.00  0.00    +0.177 C 
ATOM     12  C   UNL     1      -8.322   2.598   0.000  0.00  0.00    +0.089 C 
ATOM     13  C   UNL     1      -7.858   1.171   0.000  0.00  0.00    +0.143 C 
ATOM     14  C   UNL     1      -6.358   1.171   0.000  0.00  0.00    +0.089 C 
ATOM     15  C   UNL     1      -4.891   1.483   0.000  0.00  0.00    +0.177 C 
ATOM     24  C   UNL     1      -5.894   2.598   0.000  0.00  0.00    +0.035 C 
ATOM     25  O   UNL     1      -8.740  -0.043   0.000  0.00  0.00    -0.297 OA
ATOM     26  C   UNL     1      -7.108   3.479   0.000  0.00  0.00    +0.035 C 
ENDROOT
BRANCH   4   2
ATOM      2  C   UNL     1      -9.975   4.194   0.000  0.00  0.00    +0.326 C 
ATOM      3  O   UNL     1     -10.632   5.542   0.000  0.00  0.00    -0.250 OA
BRANCH   2   1
ATOM      1  O   UNL     1     -10.813   2.950   0.000  0.00  0.00    -0.458 OA
BRANCH   1  27
ATOM     27  C   UNL     1     -12.310   3.055   0.000  0.00  0.00    +0.105 C 
ATOM     28  C   UNL     1     -12.414   1.559   0.000  0.00  0.00    +0.055 C 
ATOM     29  C   UNL     1     -13.806   3.160   0.000  0.00  0.00    +0.055 C 
ATOM     30  C   UNL     1     -12.205   4.551   0.000  0.00  0.00    +0.055 C 
ENDBRANCH   1  27
ENDBRANCH   2   1
ENDBRANCH   4   2
BRANCH   4   5
ATOM      5  C   UNL     1      -8.115   5.545   0.000  0.00  0.00    +0.326 C 
ATOM      6  O   UNL     1      -6.673   5.958   0.000  0.00  0.00    -0.250 OA
BRANCH   5   7
ATOM      7  O   UNL     1      -9.194   6.587   0.000  0.00  0.00    -0.458 OA
BRANCH   7   8
ATOM      8  C   UNL     1      -8.832   8.042   0.000  0.00  0.00    +0.105 C 
ATOM      9  C   UNL     1     -10.287   8.405   0.000  0.00  0.00    +0.055 C 
ATOM     10  C   UNL     1      -8.469   9.498   0.000  0.00  0.00    +0.055 C 
ATOM     11  C   UNL     1      -7.376   7.679   0.000  0.00  0.00    +0.055 C 
ENDBRANCH   7   8
ENDBRANCH   5   7
ENDBRANCH   4   5
BRANCH  15  16
ATOM     16  C   UNL     1      -3.619   2.278   0.000  0.00  0.00    +0.325 C 
ATOM     19  O   UNL     1      -2.294   1.573   0.000  0.00  0.00    -0.250 OA
BRANCH  16  17
ATOM     17  O   UNL     1      -3.671   3.777   0.000  0.00  0.00    -0.467 OA
ATOM     18  C   UNL     1      -4.995   4.481   0.000  0.00  0.00    +0.280 C 
ENDBRANCH  16  17
ENDBRANCH  15  16
BRANCH  15  20
ATOM     20  C   UNL     1      -4.329   0.092   0.000  0.00  0.00    +0.325 C 
ATOM     23  O   UNL     1      -2.844  -0.117   0.000  0.00  0.00    -0.250 OA
BRANCH  20  21
ATOM     21  O   UNL     1      -5.252  -1.090   0.000  0.00  0.00    -0.467 OA
ATOM     22  C   UNL     1      -4.690  -2.481   0.000  0.00  0.00    +0.280 C 
ENDBRANCH  20  21
ENDBRANCH  15  20
TORSDOF 10