REMARK  Name = 164511
REMARK  6 active torsions:
REMARK  status: ('A' for Active; 'I' for Inactive)
REMARK    1  A    between atoms: C_3  and  N_8
REMARK    2  A    between atoms: C_4  and  C_9
REMARK    3  A    between atoms: C_5  and  C_7
REMARK    4  A    between atoms: N_12  and  C_13
REMARK    5  A    between atoms: C_13  and  C_14
REMARK    6  A    between atoms: C_14  and  C_15
REMARK                            x       y       z     vdW  Elec       q    Type
REMARK                         _______ _______ _______ _____ _____    ______ ____
ROOT
ATOM      3  N   UNL     1      -5.946  -0.750   0.000  0.00  0.00    -0.269 N 
ATOM      4  H   UNL     1      -5.946   0.234   0.000  0.00  0.00    +0.156 HD
ATOM      5  C   UNL     1      -4.647  -1.500   0.000  0.00  0.00    +0.304 C 
ATOM      6  N   UNL     1      -4.647  -3.000   0.000  0.00  0.00    -0.299 N 
ATOM      7  H   UNL     1      -5.500  -3.492   0.000  0.00  0.00    +0.150 HD
ATOM     11  O   UNL     1      -3.348  -0.750   0.000  0.00  0.00    -0.253 OA
ENDROOT
BRANCH   3   2
ATOM      1  C   UNL     1      -8.544  -0.750   0.000  0.00  0.00    +0.024 A 
ATOM      2  C   UNL     1      -7.245  -1.500   0.000  0.00  0.00    +0.038 A 
ATOM     12  C   UNL     1      -7.245  -3.000   0.000  0.00  0.00    -0.029 A 
ATOM     13  C   UNL     1      -5.946  -3.750   0.000  0.00  0.00    +0.045 C 
ATOM     14  C   UNL     1      -8.544  -3.750   0.000  0.00  0.00    +0.008 A 
ATOM     15  C   UNL     1      -9.843  -3.000   0.000  0.00  0.00    -0.050 A 
ATOM     16  C   UNL     1     -11.142  -3.750   0.000  0.00  0.00    +0.044 C 
ATOM     17  C   UNL     1      -9.843  -1.500   0.000  0.00  0.00    +0.005 A 
ENDBRANCH   3   2
BRANCH   6   8
ATOM      8  C   UNL     1      -3.348  -3.750   0.000  0.00  0.00    +0.105 C 
BRANCH   8   9
ATOM      9  C   UNL     1      -2.049  -3.000   0.000  0.00  0.00    +0.015 C 
ATOM     10  C   UNL     1      -0.750  -3.750   0.000  0.00  0.00    +0.005 C 
ENDBRANCH   8   9
ENDBRANCH   6   8
TORSDOF 3