REMARK  Name = 170955
REMARK  2 active torsions:
REMARK  status: ('A' for Active; 'I' for Inactive)
REMARK    1  A    between atoms: N_1  and  C_21
REMARK    2  A    between atoms: C_19  and  O_22
REMARK                            x       y       z     vdW  Elec       q    Type
REMARK                         _______ _______ _______ _____ _____    ______ ____
ROOT
ATOM      1  N   UNL     1      -4.647   9.750   0.000  0.00  0.00    -0.305 NA
ATOM      2  C   UNL     1      -4.647  11.250   0.000  0.00  0.00    +0.104 C 
ATOM      3  C   UNL     1      -5.946   9.000   0.000  0.00  0.00    +0.088 C 
ATOM      4  C   UNL     1      -5.946   7.500   0.000  0.00  0.00    +0.047 C 
ATOM      5  C   UNL     1      -4.647   6.750   0.000  0.00  0.00    -0.059 C 
ATOM      6  C   UNL     1      -4.647   5.250   0.000  0.00  0.00    -0.011 C 
ATOM      7  C   UNL     1      -5.946   4.500   0.000  0.00  0.00    -0.011 A 
ATOM      8  C   UNL     1      -7.245   5.250   0.000  0.00  0.00    +0.009 A 
ATOM      9  C   UNL     1      -8.544   4.500   0.000  0.00  0.00    +0.001 A 
ATOM     10  C   UNL     1      -8.544   3.000   0.000  0.00  0.00    +0.000 A 
ATOM     11  C   UNL     1      -7.245   2.250   0.000  0.00  0.00    +0.007 A 
ATOM     12  C   UNL     1      -5.946   3.000   0.000  0.00  0.00    -0.007 A 
ATOM     13  C   UNL     1      -4.647   2.250   0.000  0.00  0.00    +0.176 C 
ATOM     16  C   UNL     1      -3.348   3.000   0.000  0.00  0.00    -0.007 A 
ATOM     17  C   UNL     1      -2.049   2.250   0.000  0.00  0.00    +0.007 A 
ATOM     18  C   UNL     1      -0.750   3.000   0.000  0.00  0.00    +0.000 A 
ATOM     19  C   UNL     1      -0.750   4.500   0.000  0.00  0.00    +0.001 A 
ATOM     20  C   UNL     1      -2.049   5.250   0.000  0.00  0.00    +0.009 A 
ATOM     21  C   UNL     1      -3.348   4.500   0.000  0.00  0.00    -0.011 A 
ATOM     22  C   UNL     1      -3.348   7.500   0.000  0.00  0.00    +0.047 C 
ATOM     23  C   UNL     1      -3.348   9.000   0.000  0.00  0.00    +0.088 C 
ENDROOT
BRANCH  13  14
ATOM     14  O   UNL     1      -4.647   0.750   0.000  0.00  0.00    -0.382 OA
ATOM     15  H   UNL     1      -5.487   0.265   0.000  0.00  0.00    +0.211 HD
ENDBRANCH  13  14
TORSDOF 1