REMARK  Name = 17148
REMARK  5 active torsions:
REMARK  status: ('A' for Active; 'I' for Inactive)
REMARK    1  A    between atoms: C_3  and  S_13
REMARK    2  A    between atoms: C_6  and  N_8
REMARK    3  A    between atoms: C_7  and  S_9
REMARK    4  A    between atoms: S_9  and  N_12
REMARK    5  A    between atoms: S_13  and  N_16
REMARK                            x       y       z     vdW  Elec       q    Type
REMARK                         _______ _______ _______ _____ _____    ______ ____
ROOT
ATOM      1 CL   UNL     1      -3.348   7.299   0.000  0.00  0.00    -0.082 Cl
ATOM      2  C   UNL     1      -2.049   6.549   0.000  0.00  0.00    +0.065 A 
ATOM      3  C   UNL     1      -2.049   5.049   0.000  0.00  0.00    +0.070 A 
ATOM      7  C   UNL     1      -0.750   4.299   0.000  0.00  0.00    +0.129 A 
ATOM     14  C   UNL     1       0.549   5.049   0.000  0.00  0.00    +0.059 A 
ATOM     15  C   UNL     1       0.549   6.549   0.000  0.00  0.00    +0.108 A 
ATOM     22  C   UNL     1      -0.750   7.299   0.000  0.00  0.00    +0.050 A 
ENDROOT
BRANCH   3   4
ATOM      4  N   UNL     1      -3.348   4.299   0.000  0.00  0.00    -0.355 N 
ATOM      5  H   UNL     1      -3.348   3.315   0.000  0.00  0.00    +0.142 HD
ATOM      6  H   UNL     1      -4.201   4.791   0.000  0.00  0.00    +0.142 HD
ENDBRANCH   3   4
BRANCH   7   8
ATOM      8  S   UNL     1      -0.750   2.799   0.000  0.00  0.00    +0.058 S 
ATOM     12  O   UNL     1      -0.750   1.299   0.000  0.00  0.00    -0.153 OA
ATOM     13  O   UNL     1      -2.250   2.799   0.000  0.00  0.00    -0.153 OA
BRANCH   8   9
ATOM      9  N   UNL     1       0.750   2.799   0.000  0.00  0.00    -0.203 NA
ATOM     10  H   UNL     1       1.260   3.682   0.000  0.00  0.00    +0.144 HD
ATOM     11  H   UNL     1       1.260   1.916   0.000  0.00  0.00    +0.144 HD
ENDBRANCH   8   9
ENDBRANCH   7   8
BRANCH  15  16
ATOM     16  S   UNL     1       1.848   7.299   0.000  0.00  0.00    +0.056 S 
ATOM     20  O   UNL     1       2.598   6.000   0.000  0.00  0.00    -0.153 OA
ATOM     21  O   UNL     1       1.098   8.598   0.000  0.00  0.00    -0.153 OA
BRANCH  16  17
ATOM     17  N   UNL     1       3.147   8.049   0.000  0.00  0.00    -0.204 NA
ATOM     18  H   UNL     1       3.147   9.069   0.000  0.00  0.00    +0.144 HD
ATOM     19  H   UNL     1       4.030   7.539   0.000  0.00  0.00    +0.144 HD
ENDBRANCH  16  17
ENDBRANCH  15  16
TORSDOF 5