REMARK  Name = 164678
REMARK  3 active torsions:
REMARK  status: ('A' for Active; 'I' for Inactive)
REMARK    1  A    between atoms: C_5  and  C_13
REMARK    2  A    between atoms: C_6  and  C_16
REMARK    3  A    between atoms: C_8  and  C_15
REMARK                            x       y       z     vdW  Elec       q    Type
REMARK                         _______ _______ _______ _____ _____    ______ ____
ROOT
ATOM      1  O   UNL     1      -3.998   0.585   0.000  0.00  0.00    -0.275 OA
ATOM      2  C   UNL     1      -2.718  -0.198   0.000  0.00  0.00    +0.218 C 
ATOM      3  C   UNL     1      -2.868  -1.690   0.000  0.00  0.00    +0.098 C 
ATOM      4  C   UNL     1      -1.795  -2.738   0.000  0.00  0.00    +0.031 C 
ATOM      5  C   UNL     1      -0.306  -2.552   0.000  0.00  0.00    +0.124 C 
ATOM      6  N   UNL     1       0.476  -1.272   0.000  0.00  0.00    -0.332 N 
ATOM      7  C   UNL     1       1.976  -1.220   0.000  0.00  0.00    +0.021 A 
ATOM      8  C   UNL     1       2.899  -2.403   0.000  0.00  0.00    +0.064 C 
ATOM      9  C   UNL     1       2.390   0.221   0.000  0.00  0.00    -0.011 A 
ATOM     10  C   UNL     1       3.799   0.734   0.000  0.00  0.00    +0.047 C 
ATOM     11  C   UNL     1       1.146   1.060   0.000  0.00  0.00    +0.095 A 
ATOM     14  C   UNL     1      -0.036   0.137   0.000  0.00  0.00    +0.123 A 
ATOM     15  N   UNL     1      -1.458   0.615   0.000  0.00  0.00    -0.271 N 
ATOM     16  H   UNL     1      -1.644   2.104   0.000  0.00  0.00    +0.156 HD
ENDROOT
BRANCH  11  12
ATOM     12  C   UNL     1       1.094   2.559   0.000  0.00  0.00    +0.103 C 
ATOM     13  N   UNL     1       1.042   4.059   0.000  0.00  0.00    -0.191 NA
ENDBRANCH  11  12
TORSDOF 1