REMARK  Name = 164435
REMARK  4 active torsions:
REMARK  status: ('A' for Active; 'I' for Inactive)
REMARK    1  A    between atoms: C_4  and  N_24
REMARK    2  A    between atoms: C_10  and  N_21
REMARK    3  A    between atoms: C_12  and  N_20
REMARK    4  A    between atoms: C_15  and  N_20
REMARK                            x       y       z     vdW  Elec       q    Type
REMARK                         _______ _______ _______ _____ _____    ______ ____
ROOT
ATOM     14  C   UNL     1       2.049  -8.250   0.000  0.00  0.00    +0.035 A 
ATOM     15  C   UNL     1       0.750  -7.500   0.000  0.00  0.00    +0.025 A 
ATOM     16  C   UNL     1       0.750  -6.000   0.000  0.00  0.00    +0.025 A 
ATOM     17  C   UNL     1       2.049  -5.250   0.000  0.00  0.00    +0.031 A 
ATOM     26  C   UNL     1       3.348  -6.000   0.000  0.00  0.00    +0.025 A 
ATOM     27  C   UNL     1       3.348  -7.500   0.000  0.00  0.00    +0.025 A 
ENDROOT
BRANCH  14  12
ATOM      8  N   UNL     1       3.348 -12.000   0.000  0.00  0.00    -0.268 N 
ATOM      9  H   UNL     1       2.495 -12.492   0.000  0.00  0.00    +0.156 HD
ATOM     10  C   UNL     1       3.348 -10.500   0.000  0.00  0.00    +0.308 C 
ATOM     11  O   UNL     1       4.647  -9.750   0.000  0.00  0.00    -0.252 OA
ATOM     12  N   UNL     1       2.049  -9.750   0.000  0.00  0.00    -0.269 N 
ATOM     13  H   UNL     1       1.197 -10.242   0.000  0.00  0.00    +0.156 HD
BRANCH   8   7
ATOM      1 CL   UNL     1       3.348 -15.000   0.000  0.00  0.00    -0.082 Cl
ATOM      2  C   UNL     1       4.647 -14.250   0.000  0.00  0.00    +0.062 A 
ATOM      3  C   UNL     1       5.946 -15.000   0.000  0.00  0.00    +0.022 A 
ATOM      4  C   UNL     1       7.245 -14.250   0.000  0.00  0.00    +0.002 A 
ATOM      5  C   UNL     1       7.245 -12.750   0.000  0.00  0.00    +0.002 A 
ATOM      6  C   UNL     1       5.946 -12.000   0.000  0.00  0.00    +0.025 A 
ATOM      7  C   UNL     1       4.647 -12.750   0.000  0.00  0.00    +0.053 A 
ENDBRANCH   8   7
ENDBRANCH  14  12
BRANCH  17  18
ATOM     18  N   UNL     1       2.049  -3.750   0.000  0.00  0.00    -0.314 N 
ATOM     19  H   UNL     1       1.196  -3.258   0.000  0.00  0.00    +0.152 HD
BRANCH  18  20
ATOM     20  C   UNL     1       3.348  -3.000   0.000  0.00  0.00    +0.031 A 
ATOM     21  C   UNL     1       3.348  -1.500   0.000  0.00  0.00    +0.023 A 
ATOM     22  C   UNL     1       4.647  -0.750   0.000  0.00  0.00    +0.002 A 
ATOM     23  C   UNL     1       5.946  -1.500   0.000  0.00  0.00    +0.000 A 
ATOM     24  C   UNL     1       5.946  -3.000   0.000  0.00  0.00    +0.002 A 
ATOM     25  C   UNL     1       4.647  -3.750   0.000  0.00  0.00    +0.023 A 
ENDBRANCH  18  20
ENDBRANCH  17  18
TORSDOF 4