REMARK  Name = 16813
REMARK  5 active torsions:
REMARK  status: ('A' for Active; 'I' for Inactive)
REMARK    1  A    between atoms: C_1  and  C_15
REMARK    2  A    between atoms: C_1  and  C_16
REMARK    3  A    between atoms: C_5  and  C_12
REMARK    4  A    between atoms: C_8  and  C_14
REMARK    5  A    between atoms: C_12  and  C_13
REMARK                            x       y       z     vdW  Elec       q    Type
REMARK                         _______ _______ _______ _____ _____    ______ ____
ROOT
ATOM      1  C   UNL     1      -2.049  -2.250   0.000  0.00  0.00    -0.010 C 
ATOM      2  C   UNL     1      -1.299  -0.951   0.000  0.00  0.00    +0.016 C 
ATOM      3  C   UNL     1      -3.348  -1.500   0.000  0.00  0.00    +0.016 C 
ATOM      4  C   UNL     1      -3.348  -3.000   0.000  0.00  0.00    -0.038 A 
ATOM      5  C   UNL     1      -3.348  -4.500   0.000  0.00  0.00    -0.043 A 
ATOM      6  C   UNL     1      -4.647  -5.250   0.000  0.00  0.00    +0.008 A 
ATOM      7  C   UNL     1      -5.946  -4.500   0.000  0.00  0.00    -0.040 A 
ATOM      8  C   UNL     1      -7.245  -5.250   0.000  0.00  0.00    +0.044 C 
ATOM      9  C   UNL     1      -5.946  -3.000   0.000  0.00  0.00    +0.020 A 
ATOM     13  C   UNL     1      -2.049  -5.250   0.000  0.00  0.00    +0.035 C 
ATOM     14  C   UNL     1      -0.750  -4.500   0.000  0.00  0.00    +0.005 C 
ATOM     15  C   UNL     1      -4.647  -2.250   0.000  0.00  0.00    +0.016 A 
ATOM     16  C   UNL     1      -0.750  -3.000   0.000  0.00  0.00    +0.011 C 
ENDROOT
BRANCH   9  10
ATOM     10  C   UNL     1      -7.245  -2.250   0.000  0.00  0.00    +0.160 C 
ATOM     11  C   UNL     1      -8.544  -3.000   0.000  0.00  0.00    +0.091 C 
ATOM     12  O   UNL     1      -7.245  -0.750   0.000  0.00  0.00    -0.292 OA
ENDBRANCH   9  10
TORSDOF 1