REMARK  Name = 16736
REMARK  13 active torsions:
REMARK  status: ('A' for Active; 'I' for Inactive)
REMARK    1  A    between atoms: C_1  and  O_22
REMARK    2  A    between atoms: C_2  and  O_24
REMARK    3  A    between atoms: C_4  and  O_25
REMARK    4  A    between atoms: C_5  and  C_20
REMARK    5  A    between atoms: C_8  and  C_18
REMARK    6  A    between atoms: C_9  and  O_13
REMARK    7  A    between atoms: C_11  and  O_15
REMARK    8  A    between atoms: C_12  and  O_16
REMARK    9  A    between atoms: O_13  and  C_14
REMARK   10  A    between atoms: O_16  and  C_17
REMARK   11  A    between atoms: C_18  and  C_20
REMARK   12  A    between atoms: O_22  and  C_23
REMARK   13  A    between atoms: O_25  and  C_26
REMARK                            x       y       z     vdW  Elec       q    Type
REMARK                         _______ _______ _______ _____ _____    ______ ____
ROOT
ATOM      6  C   UNL     1      -3.522  -7.399   0.000  0.00  0.00    +0.233 C 
ATOM      7  O   UNL     1      -3.522  -8.899   0.000  0.00  0.00    -0.283 OA
ENDROOT
BRANCH   6   5
ATOM      1  C   UNL     1      -0.924  -4.399   0.000  0.00  0.00    +0.166 A 
ATOM      4  C   UNL     1      -2.223  -5.149   0.000  0.00  0.00    +0.061 A 
ATOM      5  C   UNL     1      -2.223  -6.649   0.000  0.00  0.00    +0.033 A 
ATOM     22  C   UNL     1      -0.924  -7.399   0.000  0.00  0.00    +0.061 A 
ATOM     23  C   UNL     1       0.375  -6.649   0.000  0.00  0.00    +0.166 A 
ATOM     26  C   UNL     1       0.375  -5.149   0.000  0.00  0.00    +0.201 A 
BRANCH   1   2
ATOM      2  O   UNL     1      -0.924  -2.900   0.000  0.00  0.00    -0.491 OA
ATOM      3  C   UNL     1      -2.223  -2.150   0.000  0.00  0.00    +0.277 C 
ENDBRANCH   1   2
BRANCH  23  24
ATOM     24  O   UNL     1       1.674  -7.399   0.000  0.00  0.00    -0.491 OA
ATOM     25  C   UNL     1       2.973  -6.649   0.000  0.00  0.00    +0.277 C 
ENDBRANCH  23  24
BRANCH  26  27
ATOM     27  O   UNL     1       1.674  -4.399   0.000  0.00  0.00    -0.501 OA
ATOM     28  H   UNL     1       2.485  -4.868   0.000  0.00  0.00    +0.292 HD
ENDBRANCH  26  27
ENDBRANCH   6   5
BRANCH   6   8
ATOM      8  C   UNL     1      -4.821  -6.649   0.000  0.00  0.00    +0.233 C 
ATOM      9  O   UNL     1      -4.821  -5.149   0.000  0.00  0.00    -0.283 OA
BRANCH   8  10
ATOM     10  C   UNL     1      -6.120  -7.399   0.000  0.00  0.00    +0.033 A 
ATOM     11  C   UNL     1      -6.120  -8.899   0.000  0.00  0.00    +0.061 A 
ATOM     12  C   UNL     1      -7.419  -9.649   0.000  0.00  0.00    +0.166 A 
ATOM     15  C   UNL     1      -8.718  -8.899   0.000  0.00  0.00    +0.201 A 
ATOM     18  C   UNL     1      -8.718  -7.399   0.000  0.00  0.00    +0.166 A 
ATOM     21  C   UNL     1      -7.419  -6.649   0.000  0.00  0.00    +0.061 A 
BRANCH  12  13
ATOM     13  O   UNL     1      -7.419 -11.150   0.000  0.00  0.00    -0.491 OA
ATOM     14  C   UNL     1      -8.718 -11.900   0.000  0.00  0.00    +0.277 C 
ENDBRANCH  12  13
BRANCH  15  16
ATOM     16  O   UNL     1     -10.017  -9.649   0.000  0.00  0.00    -0.501 OA
ATOM     17  H   UNL     1     -10.829  -9.181   0.000  0.00  0.00    +0.292 HD
ENDBRANCH  15  16
BRANCH  18  19
ATOM     19  O   UNL     1     -10.017  -6.649   0.000  0.00  0.00    -0.491 OA
ATOM     20  C   UNL     1     -11.316  -7.399   0.000  0.00  0.00    +0.277 C 
ENDBRANCH  18  19
ENDBRANCH   8  10
ENDBRANCH   6   8
TORSDOF 9