REMARK  Name = 173101
REMARK  1 active torsions:
REMARK  status: ('A' for Active; 'I' for Inactive)
REMARK    1  A    between atoms: C_11  and  C_13
REMARK                            x       y       z     vdW  Elec       q    Type
REMARK                         _______ _______ _______ _____ _____    ______ ____
ROOT
ATOM      1  N   UNL     1      -4.647  -2.250   0.000  0.00  0.00    -0.240 NA
ATOM      2  C   UNL     1      -5.946  -3.000   0.000  0.00  0.00    +0.061 A 
ATOM      3  C   UNL     1      -5.946  -4.500   0.000  0.00  0.00    +0.040 A 
ATOM      4  C   UNL     1      -7.245  -5.250   0.000  0.00  0.00    +0.055 C 
ATOM      5  C   UNL     1      -8.544  -4.500   0.000  0.00  0.00    +0.006 C 
ATOM      6  C   UNL     1      -8.544  -3.000   0.000  0.00  0.00    +0.007 C 
ATOM      7  N   UNL     1      -4.647  -5.250   0.000  0.00  0.00    -0.323 N 
ATOM      8  H   UNL     1      -4.647  -6.750   0.000  0.00  0.00    +0.169 HD
ATOM      9  C   UNL     1      -3.348  -4.500   0.000  0.00  0.00    +0.280 A 
ATOM     10  O   UNL     1      -2.049  -5.250   0.000  0.00  0.00    -0.265 OA
ATOM     11  C   UNL     1      -7.245  -2.250   0.000  0.00  0.00    +0.057 C 
ATOM     12  C   UNL     1      -3.348  -3.000   0.000  0.00  0.00    +0.190 A 
ENDROOT
BRANCH  12  13
ATOM     13  C   UNL     1      -2.049  -2.250   0.000  0.00  0.00    +0.265 C 
ATOM     14  N   UNL     1      -2.049  -0.750   0.000  0.00  0.00    -0.324 N 
ATOM     15  H   UNL     1      -2.902  -0.258   0.000  0.00  0.00    +0.145 HD
ATOM     16  H   UNL     1      -1.196  -0.258   0.000  0.00  0.00    +0.145 HD
ATOM     17  O   UNL     1      -0.750  -3.000   0.000  0.00  0.00    -0.269 OA
ENDBRANCH  12  13
TORSDOF 1