REMARK  Name = 17339
REMARK  3 active torsions:
REMARK  status: ('A' for Active; 'I' for Inactive)
REMARK    1  A    between atoms: N_1  and  C_15
REMARK    2  A    between atoms: C_10  and  C_14
REMARK    3  A    between atoms: C_13  and  C_16
REMARK                            x       y       z     vdW  Elec       q    Type
REMARK                         _______ _______ _______ _____ _____    ______ ____
ROOT
ATOM      1  N   UNL     1       0.275   4.024   0.000  0.00  0.00    -0.351 N 
ATOM      2  C   UNL     1      -1.025   3.275   0.000  0.00  0.00    +0.148 C 
ATOM      3  C   UNL     1       1.574   3.275   0.000  0.00  0.00    +0.016 A 
ATOM      4  C   UNL     1       1.574   1.775   0.000  0.00  0.00    +0.063 C 
ATOM      5  C   UNL     1       2.873   4.024   0.000  0.00  0.00    +0.029 A 
ATOM      6  C   UNL     1       2.873   5.524   0.000  0.00  0.00    -0.015 A 
ATOM      7  C   UNL     1       1.574   6.274   0.000  0.00  0.00    +0.029 A 
ATOM      8  C   UNL     1       4.172   6.274   0.000  0.00  0.00    -0.018 C 
ATOM      9  C   UNL     1       5.471   5.524   0.000  0.00  0.00    +0.012 C 
ATOM     10  C   UNL     1       6.770   6.274   0.000  0.00  0.00    +0.051 C 
ATOM     11  C   UNL     1       6.770   7.774   0.000  0.00  0.00    +0.179 C 
ATOM     12  C   UNL     1       5.471   8.524   0.000  0.00  0.00    +0.051 C 
ATOM     13  O   UNL     1       8.069   8.524   0.000  0.00  0.00    -0.288 OA
ATOM     14  C   UNL     1       4.172   7.774   0.000  0.00  0.00    +0.012 C 
ATOM     15  C   UNL     1       0.275   5.524   0.000  0.00  0.00    +0.016 A 
ATOM     16  C   UNL     1      -1.025   6.274   0.000  0.00  0.00    +0.063 C 
ENDROOT
TORSDOF 0