REMARK  Name = 169458
REMARK  5 active torsions:
REMARK  status: ('A' for Active; 'I' for Inactive)
REMARK    1  A    between atoms: O_5  and  C_10
REMARK    2  A    between atoms: O_5  and  C_11
REMARK    3  A    between atoms: C_6  and  C_11
REMARK    4  A    between atoms: C_8  and  C_10
REMARK    5  A    between atoms: C_11  and  C_12
REMARK                            x       y       z     vdW  Elec       q    Type
REMARK                         _______ _______ _______ _____ _____    ______ ____
ROOT
ATOM      1  H   UNL     1      -0.694   3.402   0.000  0.00  0.00    +0.150 HD
ATOM      2  N   UNL     1       0.677   4.012   0.000  0.00  0.00    -0.306 N 
ATOM      3  C   UNL     1       1.976   3.262   0.000  0.00  0.00    +0.229 C 
ATOM      4  O   UNL     1       3.090   4.266   0.000  0.00  0.00    -0.467 OA
ATOM      5  C   UNL     1       2.480   5.636   0.000  0.00  0.00    +0.218 C 
ATOM     12  S   UNL     1       2.132   1.770   0.000  0.00  0.00    +0.006 S 
ATOM     13  C   UNL     1       0.989   5.479   0.000  0.00  0.00    +0.151 C 
ENDROOT
BRANCH   5   6
ATOM      6  C   UNL     1       3.230   6.935   0.000  0.00  0.00    +0.207 C 
BRANCH   6   7
ATOM      7  O   UNL     1       4.730   6.935   0.000  0.00  0.00    -0.361 OA
BRANCH   7   8
ATOM      8  C   UNL     1       5.480   8.234   0.000  0.00  0.00    +0.189 C 
ATOM      9  C   UNL     1       4.730   9.533   0.000  0.00  0.00    +0.052 C 
BRANCH   8  10
ATOM     10  C   UNL     1       6.980   8.234   0.000  0.00  0.00    -0.074 C 
ATOM     11  C   UNL     1       8.480   8.234   0.000  0.00  0.00    +0.006 C 
ENDBRANCH   8  10
ENDBRANCH   7   8
ENDBRANCH   6   7
ENDBRANCH   5   6
TORSDOF 4