REMARK  Name = 173103
REMARK  2 active torsions:
REMARK  status: ('A' for Active; 'I' for Inactive)
REMARK    1  A    between atoms: C_9  and  C_12
REMARK    2  A    between atoms: C_12  and  O_14
REMARK                            x       y       z     vdW  Elec       q    Type
REMARK                         _______ _______ _______ _____ _____    ______ ____
ROOT
ATOM      1  N   UNL     1      -7.471   3.693   0.000  0.00  0.00    -0.212 NA
ATOM      2  C   UNL     1      -6.172   4.443   0.000  0.00  0.00    +0.204 A 
ATOM      3  N   UNL     1      -4.873   3.693   0.000  0.00  0.00    -0.191 N 
ATOM      4  C   UNL     1      -4.873   2.193   0.000  0.00  0.00    +0.152 A 
ATOM      5  C   UNL     1      -3.447   1.729   0.000  0.00  0.00    +0.121 A 
ATOM     10  C   UNL     1      -2.565   2.943   0.000  0.00  0.00    +0.152 A 
ATOM     11  N   UNL     1      -6.172   1.443   0.000  0.00  0.00    -0.330 N 
ATOM     12  H   UNL     1      -6.172  -0.057   0.000  0.00  0.00    +0.168 HD
ATOM     13  N   UNL     1      -3.447   4.156   0.000  0.00  0.00    -0.170 NA
ATOM     14  S   UNL     1      -6.172   5.943   0.000  0.00  0.00    -0.009 S 
ATOM     15  C   UNL     1      -7.471   2.193   0.000  0.00  0.00    +0.200 A 
ENDROOT
BRANCH   5   6
ATOM      6  C   UNL     1      -2.983   0.303   0.000  0.00  0.00    +0.342 C 
ATOM      9  O   UNL     1      -1.516  -0.009   0.000  0.00  0.00    -0.245 OA
BRANCH   6   7
ATOM      7  O   UNL     1      -3.987  -0.812   0.000  0.00  0.00    -0.477 OA
ATOM      8  H   UNL     1      -4.903  -0.617   0.000  0.00  0.00    +0.295 HD
ENDBRANCH   6   7
ENDBRANCH   5   6
TORSDOF 2