REMARK  Name = 166583
REMARK  2 active torsions:
REMARK  status: ('A' for Active; 'I' for Inactive)
REMARK    1  A    between atoms: C_10  and  C_13
REMARK    2  A    between atoms: C_13  and  O_14
REMARK                            x       y       z     vdW  Elec       q    Type
REMARK                         _______ _______ _______ _____ _____    ______ ____
ROOT
ATOM      1 CL   UNL     1      -4.086   0.610   0.000  0.00  0.00    -0.059 Cl
ATOM      2  C   UNL     1      -2.664   0.131   0.000  0.00  0.00    +0.168 A 
ATOM      3  C   UNL     1      -2.368  -1.340   0.000  0.00  0.00    +0.168 A 
ATOM      4  N   UNL     1      -0.947  -1.818   0.000  0.00  0.00    -0.210 NA
ATOM      5  C   UNL     1       0.179  -0.827   0.000  0.00  0.00    +0.199 A 
ATOM      6  C   UNL     1      -0.117   0.644   0.000  0.00  0.00    +0.179 A 
ATOM      7  N   UNL     1       1.190   1.380   0.000  0.00  0.00    -0.324 N 
ATOM      8  H   UNL     1       1.363   2.870   0.000  0.00  0.00    +0.169 HD
ATOM      9  C   UNL     1       2.294   0.364   0.000  0.00  0.00    +0.137 A 
ATOM     13  N   UNL     1       1.669  -1.000   0.000  0.00  0.00    -0.209 NA
ATOM     14 CL   UNL     1      -3.494  -2.331   0.000  0.00  0.00    -0.059 Cl
ATOM     15  N   UNL     1      -1.539   1.123   0.000  0.00  0.00    -0.211 NA
ENDROOT
BRANCH   9  10
ATOM     10  C   UNL     1       3.764   0.660   0.000  0.00  0.00    +0.230 C 
BRANCH  10  11
ATOM     11  O   UNL     1       4.756  -0.465   0.000  0.00  0.00    -0.387 OA
ATOM     12  H   UNL     1       4.446  -1.385   0.000  0.00  0.00    +0.210 HD
ENDBRANCH  10  11
ENDBRANCH   9  10
TORSDOF 2