REMARK  Name = 5957
REMARK  15 active torsions:
REMARK  status: ('A' for Active; 'I' for Inactive)
REMARK    1  A    between atoms: P_1  and  O_7
REMARK    2  A    between atoms: P_1  and  O_8
REMARK    3  A    between atoms: P_1  and  O_9
REMARK    4  A    between atoms: P_2  and  O_8
REMARK    5  A    between atoms: P_2  and  O_11
REMARK    6  A    between atoms: P_2  and  O_12
REMARK    7  A    between atoms: P_3  and  O_11
REMARK    8  A    between atoms: P_3  and  O_14
REMARK    9  A    between atoms: P_3  and  O_15
REMARK   10  A    between atoms: O_5  and  C_22
REMARK   11  A    between atoms: O_6  and  C_23
REMARK   12  A    between atoms: O_7  and  C_26
REMARK   13  A    between atoms: N_17  and  C_24
REMARK   14  A    between atoms: N_21  and  C_30
REMARK   15  A    between atoms: C_25  and  C_26
REMARK                            x       y       z     vdW  Elec       q    Type
REMARK                         _______ _______ _______ _____ _____    ______ ____
ROOT
ATOM     19  C   UNL     1      -0.760  -2.701   0.469  0.00  0.00    +0.178 C 
ATOM     20  C   UNL     1      -2.123  -3.334   0.205  0.00  0.00    +0.178 C 
ATOM     21  C   UNL     1      -2.990  -2.124  -0.086  0.00  0.00    +0.195 C 
ATOM     22  C   UNL     1      -2.429  -1.107   0.897  0.00  0.00    +0.253 C 
ATOM     39  O   UNL     1      -1.018  -1.378   0.993  0.00  0.00    -0.346 OA
ENDROOT
BRANCH  22  23
ATOM     23  N   UNL     1      -2.639   0.283   0.499  0.00  0.00    -0.286 N 
ATOM     24  C   UNL     1      -3.683   1.085   0.882  0.00  0.00    +0.203 A 
ATOM     25  N   UNL     1      -3.601   2.292   0.362  0.00  0.00    -0.231 NA
ATOM     26  C   UNL     1      -2.454   2.273  -0.392  0.00  0.00    +0.147 A 
ATOM     27  C   UNL     1      -1.832   3.238  -1.177  0.00  0.00    +0.147 A 
ATOM     31  N   UNL     1      -0.682   2.922  -1.820  0.00  0.00    -0.219 NA
ATOM     32  C   UNL     1      -0.198   1.667  -1.658  0.00  0.00    +0.225 A 
ATOM     33  N   UNL     1      -0.707   0.651  -0.928  0.00  0.00    -0.216 NA
ATOM     34  C   UNL     1      -1.841   1.032  -0.321  0.00  0.00    +0.167 A 
BRANCH  27  28
ATOM     28  N   UNL     1      -2.384   4.524  -1.305  0.00  0.00    -0.341 N 
ATOM     29  H   UNL     1      -1.913   5.208  -1.882  0.00  0.00    +0.144 HD
ATOM     30  H   UNL     1      -3.242   4.762  -0.826  0.00  0.00    +0.144 HD
ENDBRANCH  27  28
ENDBRANCH  22  23
BRANCH  21  35
ATOM     35  O   UNL     1      -4.365  -2.364   0.131  0.00  0.00    -0.385 OA
ATOM     36  H   UNL     1      -4.494  -2.576   1.071  0.00  0.00    +0.210 HD
ENDBRANCH  21  35
BRANCH  20  37
ATOM     37  O   UNL     1      -2.576  -3.967   1.402  0.00  0.00    -0.386 OA
ATOM     38  H   UNL     1      -3.431  -4.385   1.201  0.00  0.00    +0.210 HD
ENDBRANCH  20  37
BRANCH  19  18
ATOM     18  C   UNL     1       0.084  -2.563  -0.791  0.00  0.00    +0.206 C 
BRANCH  18  17
ATOM     17  O   UNL     1       1.321  -1.959  -0.454  0.00  0.00    -0.284 OA
BRANCH  17   1
ATOM      1  P   UNL     1       2.426  -1.686  -1.603  0.00  0.00    +0.483 P 
ATOM      2  O   UNL     1       1.972  -0.782  -2.712  0.00  0.00    -0.227 OA
BRANCH   1   3
ATOM      3  O   UNL     1       2.877  -3.162  -2.087  0.00  0.00    -0.302 OA
ATOM      4  H   UNL     1       2.313  -3.644  -2.729  0.00  0.00    +0.222 HD
ENDBRANCH   1   3
BRANCH   1   5
ATOM      5  O   UNL     1       3.722  -1.149  -0.801  0.00  0.00    -0.186 OA
BRANCH   5   6
ATOM      6  P   UNL     1       3.969   0.204   0.045  0.00  0.00    +0.492 P 
ATOM      7  O   UNL     1       5.334   0.338   0.652  0.00  0.00    -0.226 OA
BRANCH   6   8
ATOM      8  O   UNL     1       3.565   1.383  -0.985  0.00  0.00    -0.302 OA
ATOM      9  H   UNL     1       4.202   1.640  -1.686  0.00  0.00    +0.222 HD
ENDBRANCH   6   8
BRANCH   6  10
ATOM     10  O   UNL     1       2.756   0.205   1.112  0.00  0.00    -0.186 OA
BRANCH  10  11
ATOM     11  P   UNL     1       2.275   1.303   2.196  0.00  0.00    +0.481 P 
ATOM     12  O   UNL     1       3.305   1.655   3.228  0.00  0.00    -0.227 OA
BRANCH  11  13
ATOM     13  O   UNL     1       0.898   0.687   2.775  0.00  0.00    -0.302 OA
ATOM     14  H   UNL     1       0.446   1.145   3.515  0.00  0.00    +0.222 HD
ENDBRANCH  11  13
BRANCH  11  15
ATOM     15  O   UNL     1       1.778   2.534   1.274  0.00  0.00    -0.302 OA
ATOM     16  H   UNL     1       1.515   3.375   1.705  0.00  0.00    +0.222 HD
ENDBRANCH  11  15
ENDBRANCH  10  11
ENDBRANCH   6  10
ENDBRANCH   5   6
ENDBRANCH   1   5
ENDBRANCH  17   1
ENDBRANCH  18  17
ENDBRANCH  19  18
TORSDOF 15
