REMARK  Name = 9826528
REMARK  9 active torsions:
REMARK  status: ('A' for Active; 'I' for Inactive)
REMARK    1  A    between atoms: O_5  and  N_10
REMARK    2  A    between atoms: O_5  and  C_14
REMARK    3  A    between atoms: O_6  and  C_13
REMARK    4  A    between atoms: O_7  and  C_18
REMARK    5  A    between atoms: N_9  and  C_11
REMARK    6  A    between atoms: N_9  and  C_15
REMARK    7  A    between atoms: C_12  and  C_19
REMARK    8  A    between atoms: C_13  and  C_14
REMARK    9  A    between atoms: C_13  and  C_18
REMARK                            x       y       z     vdW  Elec       q    Type
REMARK                         _______ _______ _______ _____ _____    ______ ____
ROOT
ATOM     10  C   UNL     1       0.861  -1.090  -0.119  0.00  0.00    +0.082 A 
ATOM     11  C   UNL     1       1.779  -2.102  -0.398  0.00  0.00    +0.180 A 
ATOM     12  C   UNL     1       1.395  -3.439  -0.297  0.00  0.00    +0.160 A 
ATOM     13  C   UNL     1       0.093  -3.765   0.082  0.00  0.00    +0.042 A 
ATOM     14  C   UNL     1      -0.826  -2.752   0.360  0.00  0.00    +0.018 A 
ATOM     15  F   UNL     1       2.277  -4.412  -0.565  0.00  0.00    -0.202 F 
ATOM     16  F   UNL     1       3.034  -1.802  -0.763  0.00  0.00    -0.201 F 
ATOM     17  C   UNL     1      -0.422  -1.436   0.254  0.00  0.00    +0.063 A 
ENDROOT
BRANCH  17  18
ATOM     18  C   UNL     1      -1.426  -0.382   0.559  0.00  0.00    +0.269 C 
ATOM     19  N   UNL     1      -2.734  -0.708   0.295  0.00  0.00    -0.190 N 
ATOM     20  H   UNL     1      -3.075  -1.546  -0.163  0.00  0.00    +0.183 HD
ATOM     29  O   UNL     1      -1.053   0.689   1.032  0.00  0.00    -0.268 OA
BRANCH  19  21
ATOM     21  O   UNL     1      -3.667   0.303   0.591  0.00  0.00    -0.277 OA
BRANCH  21  22
ATOM     22  C   UNL     1      -4.767   0.172  -0.304  0.00  0.00    +0.223 C 
BRANCH  22  23
ATOM     23  C   UNL     1      -5.802   1.254  -0.013  0.00  0.00    +0.168 C 
BRANCH  23  27
ATOM     27  O   UNL     1      -6.279   1.085   1.323  0.00  0.00    -0.387 OA
ATOM     28  H   UNL     1      -6.682   0.202   1.389  0.00  0.00    +0.210 HD
ENDBRANCH  23  27
BRANCH  23  24
ATOM     24  C   UNL     1      -6.994   1.151  -0.955  0.00  0.00    +0.189 C 
BRANCH  24  25
ATOM     25  O   UNL     1      -7.937   2.164  -0.620  0.00  0.00    -0.392 OA
ATOM     26  H   UNL     1      -8.193   2.029   0.308  0.00  0.00    +0.210 HD
ENDBRANCH  24  25
ENDBRANCH  23  24
ENDBRANCH  22  23
ENDBRANCH  21  22
ENDBRANCH  19  21
ENDBRANCH  17  18
BRANCH  10   8
ATOM      8  N   UNL     1       1.267   0.259  -0.226  0.00  0.00    -0.309 N 
ATOM      9  H   UNL     1       0.530   0.887  -0.534  0.00  0.00    +0.152 HD
BRANCH   8   5
ATOM      1  I   UNL     1       6.808   3.095   0.587  0.00  0.00    -0.044 I 
ATOM      2  C   UNL     1       4.974   2.157   0.318  0.00  0.00    +0.016 A 
ATOM      3  C   UNL     1       4.666   1.006   1.043  0.00  0.00    +0.016 A 
ATOM      4  C   UNL     1       3.435   0.376   0.861  0.00  0.00    +0.027 A 
ATOM      5  C   UNL     1       2.508   0.896  -0.045  0.00  0.00    +0.067 A 
ATOM      6  C   UNL     1       2.820   2.049  -0.770  0.00  0.00    +0.145 A 
ATOM      7  F   UNL     1       1.940   2.559  -1.643  0.00  0.00    -0.204 F 
ATOM     30  C   UNL     1       4.051   2.678  -0.589  0.00  0.00    +0.054 A 
ENDBRANCH   8   5
ENDBRANCH  10   8
TORSDOF 9
