REMARK  Name = 10127622
REMARK  8 active torsions:
REMARK  status: ('A' for Active; 'I' for Inactive)
REMARK    1  A    between atoms: O_4  and  N_10
REMARK    2  A    between atoms: O_4  and  C_26
REMARK    3  A    between atoms: O_6  and  C_27
REMARK    4  A    between atoms: N_7  and  C_18
REMARK    5  A    between atoms: N_8  and  C_13
REMARK    6  A    between atoms: N_8  and  C_20
REMARK    7  A    between atoms: C_14  and  C_19
REMARK    8  A    between atoms: C_26  and  C_27
REMARK                            x       y       z     vdW  Elec       q    Type
REMARK                         _______ _______ _______ _____ _____    ______ ____
ROOT
ATOM     10  C   UNL     1       0.188   0.457   0.164  0.00  0.00    +0.082 A 
ATOM     11  C   UNL     1       0.784   1.702   0.402  0.00  0.00    +0.172 A 
ATOM     12  C   UNL     1      -0.011   2.856   0.300  0.00  0.00    +0.126 A 
ATOM     13  C   UNL     1      -1.357   2.725  -0.032  0.00  0.00    +0.072 A 
ATOM     14  C   UNL     1      -1.971   1.496  -0.274  0.00  0.00    +0.043 A 
ATOM     15  N   UNL     1      -1.831   4.012  -0.047  0.00  0.00    -0.333 N 
ATOM     16  C   UNL     1      -3.181   4.430  -0.341  0.00  0.00    +0.150 C 
ATOM     17  C   UNL     1      -0.791   4.843   0.265  0.00  0.00    +0.200 A 
ATOM     18  N   UNL     1       0.322   4.178   0.481  0.00  0.00    -0.233 NA
ATOM     19  F   UNL     1       2.083   1.794   0.720  0.00  0.00    -0.201 F 
ATOM     20  C   UNL     1      -1.165   0.358  -0.167  0.00  0.00    +0.065 A 
ENDROOT
BRANCH  20  21
ATOM     21  C   UNL     1      -1.781  -0.940  -0.421  0.00  0.00    +0.269 C 
ATOM     22  N   UNL     1      -3.129  -1.062  -0.121  0.00  0.00    -0.190 N 
ATOM     23  H   UNL     1      -3.716  -0.352   0.303  0.00  0.00    +0.183 HD
ATOM     29  O   UNL     1      -1.115  -1.873  -0.900  0.00  0.00    -0.268 OA
BRANCH  22  24
ATOM     24  O   UNL     1      -3.706  -2.322  -0.373  0.00  0.00    -0.277 OA
BRANCH  24  25
ATOM     25  C   UNL     1      -5.079  -2.268  -0.011  0.00  0.00    +0.218 C 
BRANCH  25  26
ATOM     26  C   UNL     1      -5.715  -3.619  -0.277  0.00  0.00    +0.186 C 
BRANCH  26  27
ATOM     27  O   UNL     1      -5.035  -4.609   0.485  0.00  0.00    -0.393 OA
ATOM     28  H   UNL     1      -4.098  -4.587   0.224  0.00  0.00    +0.209 HD
ENDBRANCH  26  27
ENDBRANCH  25  26
ENDBRANCH  24  25
ENDBRANCH  22  24
ENDBRANCH  20  21
BRANCH  10   8
ATOM      8  N   UNL     1       0.988  -0.707   0.263  0.00  0.00    -0.310 N 
ATOM      9  H   UNL     1       0.490  -1.521   0.612  0.00  0.00    +0.152 HD
BRANCH   8   5
ATOM      1 BR   UNL     1       6.916  -1.641  -0.789  0.00  0.00    -0.050 Br
ATOM      2  C   UNL     1       5.077  -1.359  -0.455  0.00  0.00    +0.019 A 
ATOM      3  C   UNL     1       4.385  -0.374  -1.158  0.00  0.00    +0.017 A 
ATOM      4  C   UNL     1       3.027  -0.165  -0.912  0.00  0.00    +0.026 A 
ATOM      5  C   UNL     1       2.355  -0.941   0.038  0.00  0.00    +0.050 A 
ATOM      6  C   UNL     1       3.056  -1.927   0.741  0.00  0.00    +0.063 A 
ATOM      7 CL   UNL     1       2.272  -2.911   1.924  0.00  0.00    -0.082 Cl
ATOM     30  C   UNL     1       4.413  -2.136   0.495  0.00  0.00    +0.037 A 
ENDBRANCH   8   5
ENDBRANCH  10   8
TORSDOF 7
