REMARK  Name = 657457
REMARK  9 active torsions:
REMARK  status: ('A' for Active; 'I' for Inactive)
REMARK    1  A    between atoms: C_1  and  O_32
REMARK    2  A    between atoms: C_3  and  C_7
REMARK    3  A    between atoms: C_5  and  O_28
REMARK    4  A    between atoms: C_6  and  O_30
REMARK    5  A    between atoms: N_11  and  N_15
REMARK    6  A    between atoms: C_19  and  C_21
REMARK    7  A    between atoms: O_28  and  C_29
REMARK    8  A    between atoms: O_30  and  C_31
REMARK    9  A    between atoms: O_32  and  C_33
REMARK                            x       y       z     vdW  Elec       q    Type
REMARK                         _______ _______ _______ _____ _____    ______ ____
ROOT
ATOM     12  C   UNL     1      10.358   5.940   0.000  0.00  0.00    +0.028 C 
ATOM     13  C   UNL     1      11.657   5.190   0.000  0.00  0.00    +0.078 C 
ATOM     14  C   UNL     1      13.027   5.800   0.000  0.00  0.00    +0.256 C 
ATOM     15  O   UNL     1      13.339   7.267   0.000  0.00  0.00    -0.269 OA
ATOM     16  N   UNL     1      14.031   4.686   0.000  0.00  0.00    -0.259 N 
ATOM     17  H   UNL     1      15.010   4.788   0.000  0.00  0.00    +0.157 HD
ATOM     18  C   UNL     1      13.281   3.386   0.000  0.00  0.00    +0.183 C 
ATOM     19  N   UNL     1      13.891   2.016   0.000  0.00  0.00    -0.158 NA
ATOM     34  S   UNL     1      11.813   3.698   0.000  0.00  0.00    -0.048 S 
ENDROOT
BRANCH  19  20
ATOM     20  N   UNL     1      15.383   1.859   0.000  0.00  0.00    -0.213 N 
ATOM     21  H   UNL     1      15.961   2.656   0.000  0.00  0.00    +0.177 HD
ATOM     22  C   UNL     1      15.993   0.489   0.000  0.00  0.00    +0.178 A 
ATOM     23  N   UNL     1      15.243  -0.810   0.000  0.00  0.00    -0.224 NA
ATOM     24  C   UNL     1      16.247  -1.925   0.000  0.00  0.00    +0.080 A 
ATOM     32  C   UNL     1      17.617  -1.315   0.000  0.00  0.00    +0.077 A 
ATOM     33  S   UNL     1      17.460   0.177   0.000  0.00  0.00    -0.059 S 
BRANCH  24  25
ATOM     25  C   UNL     1      15.935  -3.392   0.000  0.00  0.00    +0.001 A 
ATOM     26  C   UNL     1      14.508  -3.856   0.000  0.00  0.00    +0.011 A 
ATOM     27  C   UNL     1      14.196  -5.323   0.000  0.00  0.00    +0.016 A 
ATOM     28  C   UNL     1      15.311  -6.326   0.000  0.00  0.00    +0.018 A 
ATOM     29 BR   UNL     1      14.999  -7.794   0.000  0.00  0.00    -0.050 Br
ATOM     30  C   UNL     1      16.737  -5.863   0.000  0.00  0.00    +0.016 A 
ATOM     31  C   UNL     1      17.049  -4.396   0.000  0.00  0.00    +0.011 A 
ENDBRANCH  24  25
ENDBRANCH  19  20
BRANCH  12  11
ATOM      1  C   UNL     1       6.461   5.190   0.000  0.00  0.00    +0.166 A 
ATOM      4  C   UNL     1       6.461   3.690   0.000  0.00  0.00    +0.204 A 
ATOM      7  C   UNL     1       7.760   2.940   0.000  0.00  0.00    +0.166 A 
ATOM     10  C   UNL     1       9.059   3.690   0.000  0.00  0.00    +0.057 A 
ATOM     11  C   UNL     1       9.059   5.190   0.000  0.00  0.00    -0.017 A 
ATOM     35  C   UNL     1       7.760   5.940   0.000  0.00  0.00    +0.057 A 
BRANCH   1   2
ATOM      2  O   UNL     1       5.162   5.940   0.000  0.00  0.00    -0.491 OA
ATOM      3  C   UNL     1       3.862   5.190   0.000  0.00  0.00    +0.277 C 
ENDBRANCH   1   2
BRANCH   4   5
ATOM      5  O   UNL     1       5.162   2.940   0.000  0.00  0.00    -0.488 OA
ATOM      6  C   UNL     1       5.162   1.440   0.000  0.00  0.00    +0.277 C 
ENDBRANCH   4   5
BRANCH   7   8
ATOM      8  O   UNL     1       7.760   1.440   0.000  0.00  0.00    -0.491 OA
ATOM      9  C   UNL     1       9.059   0.690   0.000  0.00  0.00    +0.277 C 
ENDBRANCH   7   8
ENDBRANCH  12  11
TORSDOF 6