REMARK  Name = 652287
REMARK  6 active torsions:
REMARK  status: ('A' for Active; 'I' for Inactive)
REMARK    1  A    between atoms: C_2  and  C_16
REMARK    2  A    between atoms: C_5  and  C_7
REMARK    3  A    between atoms: C_10  and  C_12
REMARK    4  A    between atoms: C_15  and  C_17
REMARK    5  A    between atoms: C_16  and  O_19
REMARK    6  A    between atoms: C_17  and  O_18
REMARK                            x       y       z     vdW  Elec       q    Type
REMARK                         _______ _______ _______ _____ _____    ______ ____
ROOT
ATOM      3  C   UNL     1      -7.629  -6.084   0.000  0.00  0.00    +0.142 A 
ATOM      4  C   UNL     1      -6.747  -7.297   0.000  0.00  0.00    +0.051 A 
ATOM      5  C   UNL     1      -5.321  -6.834   0.000  0.00  0.00    +0.051 A 
ATOM      6  C   UNL     1      -5.321  -5.334   0.000  0.00  0.00    +0.142 A 
ATOM     15  O   UNL     1      -6.747  -4.870   0.000  0.00  0.00    -0.454 OA
ENDROOT
BRANCH   3   2
ATOM      1  S   UNL     1     -10.011  -4.870   0.000  0.00  0.00    -0.088 S 
ATOM      2  C   UNL     1      -9.129  -6.084   0.000  0.00  0.00    +0.055 A 
ATOM     16  C   UNL     1     -10.011  -7.297   0.000  0.00  0.00    +0.019 A 
ATOM     17  C   UNL     1     -11.437  -6.834   0.000  0.00  0.00    +0.014 A 
ATOM     18  C   UNL     1     -11.437  -5.334   0.000  0.00  0.00    +0.016 A 
BRANCH  18  19
ATOM     19  C   UNL     1     -12.651  -4.452   0.000  0.00  0.00    +0.198 C 
BRANCH  19  20
ATOM     20  O   UNL     1     -14.021  -5.062   0.000  0.00  0.00    -0.390 OA
ATOM     21  H   UNL     1     -14.806  -4.492   0.000  0.00  0.00    +0.210 HD
ENDBRANCH  19  20
ENDBRANCH  18  19
ENDBRANCH   3   2
BRANCH   6   7
ATOM      7  C   UNL     1      -4.107  -4.452   0.000  0.00  0.00    +0.055 A 
ATOM      8  C   UNL     1      -2.681  -4.915   0.000  0.00  0.00    +0.019 A 
ATOM      9  C   UNL     1      -1.799  -3.702   0.000  0.00  0.00    +0.014 A 
ATOM     10  C   UNL     1      -2.681  -2.488   0.000  0.00  0.00    +0.016 A 
ATOM     14  S   UNL     1      -4.107  -2.952   0.000  0.00  0.00    -0.088 S 
BRANCH  10  11
ATOM     11  C   UNL     1      -2.217  -1.062   0.000  0.00  0.00    +0.198 C 
BRANCH  11  12
ATOM     12  O   UNL     1      -0.750  -0.750   0.000  0.00  0.00    -0.390 OA
ATOM     13  H   UNL     1      -0.101  -1.471   0.000  0.00  0.00    +0.210 HD
ENDBRANCH  11  12
ENDBRANCH  10  11
ENDBRANCH   6   7
TORSDOF 6