REMARK  Name = 657722
REMARK  9 active torsions:
REMARK  status: ('A' for Active; 'I' for Inactive)
REMARK    1  A    between atoms: C_5  and  C_8
REMARK    2  A    between atoms: C_8  and  S_21
REMARK    3  A    between atoms: C_9  and  C_10
REMARK    4  A    between atoms: C_9  and  C_13
REMARK    5  A    between atoms: C_9  and  S_21
REMARK    6  A    between atoms: C_10  and  C_11
REMARK    7  A    between atoms: C_24  and  N_32
REMARK    8  A    between atoms: C_25  and  C_31
REMARK    9  A    between atoms: C_29  and  C_30
REMARK                            x       y       z     vdW  Elec       q    Type
REMARK                         _______ _______ _______ _____ _____    ______ ____
ROOT
ATOM      9  C   UNL     1       4.821   6.248   0.000  0.00  0.00    +0.237 C 
ENDROOT
BRANCH   9  10
ATOM     10  C   UNL     1       4.071   7.547   0.000  0.00  0.00    +0.003 A 
ATOM     11  C   UNL     1       2.571   7.547   0.000  0.00  0.00    +0.046 A 
ATOM     12 CL   UNL     1       1.821   6.248   0.000  0.00  0.00    -0.083 Cl
ATOM     13  C   UNL     1       1.821   8.846   0.000  0.00  0.00    +0.020 A 
ATOM     14  C   UNL     1       2.571  10.145   0.000  0.00  0.00    +0.001 A 
ATOM     15  C   UNL     1       4.071  10.145   0.000  0.00  0.00    +0.000 A 
ATOM     16  C   UNL     1       4.821   8.846   0.000  0.00  0.00    +0.007 A 
ENDBRANCH   9  10
BRANCH   9   6
ATOM      6  S   UNL     1       4.071   4.949   0.000  0.00  0.00    -0.013 S 
ATOM      7  O   UNL     1       5.370   4.199   0.000  0.00  0.00    -0.173 OA
ATOM      8  O   UNL     1       3.321   3.650   0.000  0.00  0.00    -0.173 OA
BRANCH   6   5
ATOM      5  C   UNL     1       2.772   5.699   0.000  0.00  0.00    +0.203 C 
BRANCH   5   4
ATOM      1  C   UNL     1      -1.125   4.949   0.000  0.00  0.00    +0.020 A 
ATOM      2  C   UNL     1       0.174   5.699   0.000  0.00  0.00    +0.046 A 
ATOM      3 CL   UNL     1       0.174   7.199   0.000  0.00  0.00    -0.083 Cl
ATOM      4  C   UNL     1       1.473   4.949   0.000  0.00  0.00    -0.008 A 
ATOM     31  C   UNL     1       1.473   3.449   0.000  0.00  0.00    +0.006 A 
ATOM     32  C   UNL     1       0.174   2.699   0.000  0.00  0.00    +0.000 A 
ATOM     33  C   UNL     1      -1.125   3.449   0.000  0.00  0.00    +0.001 A 
ENDBRANCH   5   4
ENDBRANCH   6   5
ENDBRANCH   9   6
BRANCH   9  17
ATOM     17  C   UNL     1       6.321   6.248   0.000  0.00  0.00    +0.246 C 
ATOM     18  O   UNL     1       7.071   4.949   0.000  0.00  0.00    -0.285 OA
BRANCH  17  19
ATOM     19  C   UNL     1       7.071   7.547   0.000  0.00  0.00    +0.286 C 
ATOM     20  N   UNL     1       8.571   7.547   0.000  0.00  0.00    -0.279 N 
ATOM     21  H   UNL     1       9.063   6.694   0.000  0.00  0.00    +0.155 HD
ATOM     30  O   UNL     1       6.321   8.846   0.000  0.00  0.00    -0.267 OA
BRANCH  20  22
ATOM     22  C   UNL     1       9.321   8.846   0.000  0.00  0.00    +0.040 A 
ATOM     23  C   UNL     1       8.571  10.145   0.000  0.00  0.00    -0.029 A 
ATOM     24  C   UNL     1       7.071  10.145   0.000  0.00  0.00    +0.045 C 
ATOM     25  C   UNL     1       9.321  11.444   0.000  0.00  0.00    +0.005 A 
ATOM     26  C   UNL     1      10.821  11.444   0.000  0.00  0.00    +0.001 A 
ATOM     27  C   UNL     1      11.571  10.145   0.000  0.00  0.00    +0.005 A 
ATOM     28  C   UNL     1      10.821   8.846   0.000  0.00  0.00    -0.029 A 
ATOM     29  C   UNL     1      11.571   7.547   0.000  0.00  0.00    +0.045 C 
ENDBRANCH  20  22
ENDBRANCH  17  19
ENDBRANCH   9  17
TORSDOF 7