REMARK  Name = 643186
REMARK  4 active torsions:
REMARK  status: ('A' for Active; 'I' for Inactive)
REMARK    1  A    between atoms: C_8  and  C_11
REMARK    2  A    between atoms: C_12  and  C_13
REMARK    3  A    between atoms: C_12  and  C_21
REMARK    4  A    between atoms: C_13  and  C_15
REMARK                            x       y       z     vdW  Elec       q    Type
REMARK                         _______ _______ _______ _____ _____    ______ ____
ROOT
ATOM      5  C   UNL     1       7.245   4.500   0.000  0.00  0.00    +0.030 C 
ATOM      6  C   UNL     1       8.544   3.750   0.000  0.00  0.00    +0.099 C 
ENDROOT
BRANCH   5   4
ATOM      1  C   UNL     1       2.049   4.500   0.000  0.00  0.00    +0.008 A 
ATOM      2  C   UNL     1       3.348   3.750   0.000  0.00  0.00    -0.017 A 
ATOM      3  C   UNL     1       4.647   4.500   0.000  0.00  0.00    +0.016 A 
ATOM      4  C   UNL     1       5.946   3.750   0.000  0.00  0.00    -0.023 A 
ATOM     17  C   UNL     1       5.946   2.250   0.000  0.00  0.00    +0.008 A 
ATOM     18  C   UNL     1       4.647   1.500   0.000  0.00  0.00    +0.009 A 
ATOM     19  C   UNL     1       3.348   2.250   0.000  0.00  0.00    -0.018 A 
ATOM     20  C   UNL     1       2.049   1.500   0.000  0.00  0.00    +0.008 A 
ATOM     21  C   UNL     1       0.750   2.250   0.000  0.00  0.00    +0.001 A 
ATOM     22  C   UNL     1       0.750   3.750   0.000  0.00  0.00    +0.001 A 
ENDBRANCH   5   4
BRANCH   6   7
ATOM      7  C   UNL     1       8.544   2.250   0.000  0.00  0.00    +0.103 C 
ATOM      8  N   UNL     1       8.544   0.750   0.000  0.00  0.00    -0.191 NA
ENDBRANCH   6   7
BRANCH   6   9
ATOM      9  C   UNL     1       9.843   4.500   0.000  0.00  0.00    +0.203 C 
ATOM     16  O   UNL     1       9.843   6.000   0.000  0.00  0.00    -0.286 OA
BRANCH   9  10
ATOM     10  C   UNL     1      11.142   3.750   0.000  0.00  0.00    +0.023 A 
ATOM     11  C   UNL     1      12.441   4.500   0.000  0.00  0.00    +0.012 A 
ATOM     12  C   UNL     1      13.740   3.750   0.000  0.00  0.00    +0.001 A 
ATOM     13  C   UNL     1      13.740   2.250   0.000  0.00  0.00    +0.000 A 
ATOM     14  C   UNL     1      12.441   1.500   0.000  0.00  0.00    +0.001 A 
ATOM     15  C   UNL     1      11.142   2.250   0.000  0.00  0.00    +0.012 A 
ENDBRANCH   9  10
ENDBRANCH   6   9
TORSDOF 4