REMARK  Name = 643910
REMARK  6 active torsions:
REMARK  status: ('A' for Active; 'I' for Inactive)
REMARK    1  A    between atoms: C_3  and  C_5
REMARK    2  A    between atoms: C_10  and  C_12
REMARK    3  A    between atoms: C_11  and  C_13
REMARK    4  A    between atoms: C_13  and  O_15
REMARK    5  A    between atoms: O_15  and  C_16
REMARK    6  A    between atoms: C_16  and  C_17
REMARK                            x       y       z     vdW  Elec       q    Type
REMARK                         _______ _______ _______ _____ _____    ______ ____
ROOT
ATOM      6  C   UNL     1      -8.809  -0.280   0.000  0.00  0.00    +0.141 C 
ATOM      7  C   UNL     1      -7.510  -1.030   0.000  0.00  0.00    +0.078 C 
ATOM     13  C   UNL     1      -7.510  -2.530   0.000  0.00  0.00    +0.019 C 
ATOM     14  C   UNL     1      -6.211  -3.280   0.000  0.00  0.00    +0.061 C 
ATOM     15  N   UNL     1      -8.809  -3.280   0.000  0.00  0.00    -0.300 N 
ATOM     16  H   UNL     1      -8.809  -4.264   0.000  0.00  0.00    +0.154 HD
ATOM     17  C   UNL     1     -10.108  -2.530   0.000  0.00  0.00    +0.135 C 
ATOM     18  S   UNL     1     -11.408  -3.280   0.000  0.00  0.00    -0.019 S 
ATOM     19  N   UNL     1     -10.108  -1.030   0.000  0.00  0.00    -0.315 N 
ATOM     20  H   UNL     1     -10.961  -0.538   0.000  0.00  0.00    +0.149 HD
ENDROOT
BRANCH   6   5
ATOM      1  C   UNL     1      -7.510   3.470   0.000  0.00  0.00    +0.000 A 
ATOM      2  C   UNL     1      -8.809   4.220   0.000  0.00  0.00    +0.000 A 
ATOM      3  C   UNL     1     -10.108   3.470   0.000  0.00  0.00    +0.000 A 
ATOM      4  C   UNL     1     -10.108   1.970   0.000  0.00  0.00    +0.006 A 
ATOM      5  C   UNL     1      -8.809   1.220   0.000  0.00  0.00    -0.023 A 
ATOM     21  C   UNL     1      -7.510   1.970   0.000  0.00  0.00    +0.006 A 
ENDBRANCH   6   5
BRANCH   7   8
ATOM      8  C   UNL     1      -6.211  -0.280   0.000  0.00  0.00    +0.339 C 
ATOM     12  O   UNL     1      -6.211   1.220   0.000  0.00  0.00    -0.245 OA
BRANCH   8   9
ATOM      9  O   UNL     1      -4.912  -1.030   0.000  0.00  0.00    -0.462 OA
BRANCH   9  10
ATOM     10  C   UNL     1      -3.613  -0.280   0.000  0.00  0.00    +0.229 C 
ATOM     11  C   UNL     1      -2.314  -1.030   0.000  0.00  0.00    +0.048 C 
ENDBRANCH   9  10
ENDBRANCH   8   9
ENDBRANCH   7   8
TORSDOF 4