REMARK  Name = 647613
REMARK  6 active torsions:
REMARK  status: ('A' for Active; 'I' for Inactive)
REMARK    1  A    between atoms: C_7  and  C_11
REMARK    2  A    between atoms: C_11  and  C_12
REMARK    3  A    between atoms: C_12  and  C_13
REMARK    4  A    between atoms: C_14  and  O_27
REMARK    5  A    between atoms: N_19  and  N_20
REMARK    6  A    between atoms: N_20  and  C_21
REMARK                            x       y       z     vdW  Elec       q    Type
REMARK                         _______ _______ _______ _____ _____    ______ ____
ROOT
ATOM      9  C   UNL     1      -0.889   8.520   0.000  0.00  0.00    +0.071 C 
ATOM     10  N   UNL     1      -0.425   9.946   0.000  0.00  0.00    -0.186 NA
ENDROOT
BRANCH   9  19
ATOM     19  C   UNL     1       0.466   7.015   0.000  0.00  0.00    +0.039 A 
ATOM     20  C   UNL     1       0.002   5.588   0.000  0.00  0.00    +0.013 A 
ATOM     21  C   UNL     1       1.006   4.473   0.000  0.00  0.00    +0.001 A 
ATOM     22  C   UNL     1       2.473   4.785   0.000  0.00  0.00    +0.004 A 
ATOM     23  C   UNL     1       2.937   6.212   0.000  0.00  0.00    +0.046 A 
ATOM     24  C   UNL     1       1.933   7.327   0.000  0.00  0.00    +0.126 A 
BRANCH  24  25
ATOM     25  O   UNL     1       2.397   8.753   0.000  0.00  0.00    -0.506 OA
ATOM     26  H   UNL     1       3.313   8.948   0.000  0.00  0.00    +0.292 HD
ENDBRANCH  24  25
ENDBRANCH   9  19
BRANCH  10  11
ATOM     11  N   UNL     1      -1.429  11.061   0.000  0.00  0.00    -0.238 N 
ATOM     12  H   UNL     1      -2.392  10.856   0.000  0.00  0.00    +0.174 HD
BRANCH  11  13
ATOM     13  C   UNL     1      -0.966  12.488   0.000  0.00  0.00    +0.048 A 
ATOM     14  C   UNL     1      -1.969  13.602   0.000  0.00  0.00    +0.025 A 
ATOM     15  C   UNL     1      -1.506  15.029   0.000  0.00  0.00    +0.002 A 
ATOM     16  C   UNL     1      -0.039  15.341   0.000  0.00  0.00    +0.000 A 
ATOM     17  C   UNL     1       0.965  14.226   0.000  0.00  0.00    +0.002 A 
ATOM     18  C   UNL     1       0.501  12.799   0.000  0.00  0.00    +0.025 A 
ENDBRANCH  11  13
ENDBRANCH  10  11
BRANCH   9   8
ATOM      8  C   UNL     1      -2.870   8.099   0.000  0.00  0.00    +0.077 C 
BRANCH   8   7
ATOM      1  C   UNL     1      -7.358   4.708   0.000  0.00  0.00    +0.004 A 
ATOM      2  C   UNL     1      -6.059   3.958   0.000  0.00  0.00    +0.046 A 
ATOM      3  C   UNL     1      -4.760   4.708   0.000  0.00  0.00    +0.136 A 
ATOM      4  O   UNL     1      -3.333   4.245   0.000  0.00  0.00    -0.425 OA
ATOM      5  C   UNL     1      -2.452   5.458   0.000  0.00  0.00    +0.320 C 
ATOM      6  O   UNL     1      -0.952   5.458   0.000  0.00  0.00    -0.250 OA
ATOM      7  C   UNL     1      -3.333   6.672   0.000  0.00  0.00    +0.137 C 
ATOM     27  C   UNL     1      -4.760   6.208   0.000  0.00  0.00    +0.009 A 
ATOM     28  C   UNL     1      -6.059   6.958   0.000  0.00  0.00    +0.008 A 
ATOM     29  C   UNL     1      -7.358   6.208   0.000  0.00  0.00    +0.001 A 
ENDBRANCH   8   7
ENDBRANCH   9   8
TORSDOF 6