REMARK  Name = 653000
REMARK  30 active torsions:
REMARK  status: ('A' for Active; 'I' for Inactive)
REMARK    1  A    between atoms: N_7  and  C_10
REMARK    2  A    between atoms: N_7  and  C_11
REMARK    3  A    between atoms: N_8  and  C_20
REMARK    4  A    between atoms: N_8  and  C_25
REMARK    5  A    between atoms: N_9  and  C_30
REMARK    6  A    between atoms: N_9  and  C_35
REMARK    7  A    between atoms: C_10  and  N_13
REMARK    8  A    between atoms: C_11  and  N_12
REMARK    9  A    between atoms: N_12  and  C_17
REMARK   10  A    between atoms: N_13  and  C_14
REMARK   11  A    between atoms: C_14  and  C_15
REMARK   12  A    between atoms: C_15  and  O_16
REMARK   13  A    between atoms: C_17  and  C_18
REMARK   14  A    between atoms: C_18  and  O_19
REMARK   15  A    between atoms: C_20  and  N_21
REMARK   16  A    between atoms: N_21  and  C_22
REMARK   17  A    between atoms: C_22  and  C_23
REMARK   18  A    between atoms: C_23  and  O_24
REMARK   19  A    between atoms: C_25  and  N_26
REMARK   20  A    between atoms: N_26  and  C_27
REMARK   21  A    between atoms: C_27  and  C_28
REMARK   22  A    between atoms: C_28  and  O_29
REMARK   23  A    between atoms: C_30  and  N_31
REMARK   24  A    between atoms: N_31  and  C_32
REMARK   25  A    between atoms: C_32  and  C_33
REMARK   26  A    between atoms: C_33  and  O_34
REMARK   27  A    between atoms: C_35  and  N_36
REMARK   28  A    between atoms: N_36  and  C_37
REMARK   29  A    between atoms: C_37  and  C_38
REMARK   30  A    between atoms: C_38  and  O_39
REMARK                            x       y       z     vdW  Elec       q    Type
REMARK                         _______ _______ _______ _____ _____    ______ ____
ROOT
ATOM      1  C   UNL     1       8.544   5.250   0.000  0.00  0.00    +0.226 A 
ATOM      2  N   UNL     1       7.245   6.000   0.000  0.00  0.00    -0.274 N 
ATOM     17  N   UNL     1       8.544   3.750   0.000  0.00  0.00    -0.181 NA
ATOM     18  C   UNL     1       9.843   3.000   0.000  0.00  0.00    +0.226 A 
ATOM     19  N   UNL     1       9.843   1.500   0.000  0.00  0.00    -0.274 N 
ATOM     34  N   UNL     1      11.142   3.750   0.000  0.00  0.00    -0.181 NA
ATOM     35  C   UNL     1      11.142   5.250   0.000  0.00  0.00    +0.226 A 
ATOM     36  N   UNL     1      12.441   6.000   0.000  0.00  0.00    -0.274 N 
ATOM     51  N   UNL     1       9.843   6.000   0.000  0.00  0.00    -0.181 NA
ENDROOT
BRANCH   2   3
ATOM      3  C   UNL     1       5.946   5.250   0.000  0.00  0.00    +0.193 C 
BRANCH   3   4
ATOM      4  N   UNL     1       4.647   6.000   0.000  0.00  0.00    -0.299 NA
ATOM      5  H   UNL     1       4.647   7.020   0.000  0.00  0.00    +0.123 HD
BRANCH   4   6
ATOM      6  C   UNL     1       3.348   5.250   0.000  0.00  0.00    +0.110 C 
BRANCH   6   7
ATOM      7  C   UNL     1       2.049   6.000   0.000  0.00  0.00    +0.171 C 
BRANCH   7   8
ATOM      8  O   UNL     1       0.750   5.250   0.000  0.00  0.00    -0.394 OA
ATOM      9  H   UNL     1      -0.090   5.735   0.000  0.00  0.00    +0.209 HD
ENDBRANCH   7   8
ENDBRANCH   6   7
ENDBRANCH   4   6
ENDBRANCH   3   4
ENDBRANCH   2   3
BRANCH   2  10
ATOM     10  C   UNL     1       7.245   7.500   0.000  0.00  0.00    +0.193 C 
BRANCH  10  11
ATOM     11  N   UNL     1       5.946   8.250   0.000  0.00  0.00    -0.299 NA
ATOM     12  H   UNL     1       5.946   9.270   0.000  0.00  0.00    +0.123 HD
BRANCH  11  13
ATOM     13  C   UNL     1       4.647   7.500   0.000  0.00  0.00    +0.110 C 
BRANCH  13  14
ATOM     14  C   UNL     1       3.348   8.250   0.000  0.00  0.00    +0.171 C 
BRANCH  14  15
ATOM     15  O   UNL     1       2.049   7.500   0.000  0.00  0.00    -0.394 OA
ATOM     16  H   UNL     1       1.209   7.985   0.000  0.00  0.00    +0.209 HD
ENDBRANCH  14  15
ENDBRANCH  13  14
ENDBRANCH  11  13
ENDBRANCH  10  11
ENDBRANCH   2  10
BRANCH  19  20
ATOM     20  C   UNL     1      11.142   0.750   0.000  0.00  0.00    +0.193 C 
BRANCH  20  21
ATOM     21  N   UNL     1      12.441   1.500   0.000  0.00  0.00    -0.299 NA
ATOM     22  H   UNL     1      12.441   2.520   0.000  0.00  0.00    +0.123 HD
BRANCH  21  23
ATOM     23  C   UNL     1      13.740   0.750   0.000  0.00  0.00    +0.110 C 
BRANCH  23  24
ATOM     24  C   UNL     1      15.039   1.500   0.000  0.00  0.00    +0.171 C 
BRANCH  24  25
ATOM     25  O   UNL     1      16.339   0.750   0.000  0.00  0.00    -0.394 OA
ATOM     26  H   UNL     1      16.339  -0.220   0.000  0.00  0.00    +0.209 HD
ENDBRANCH  24  25
ENDBRANCH  23  24
ENDBRANCH  21  23
ENDBRANCH  20  21
ENDBRANCH  19  20
BRANCH  19  27
ATOM     27  C   UNL     1       8.544   0.750   0.000  0.00  0.00    +0.193 C 
BRANCH  27  28
ATOM     28  N   UNL     1       7.245   1.500   0.000  0.00  0.00    -0.299 NA
ATOM     29  H   UNL     1       7.245   2.520   0.000  0.00  0.00    +0.123 HD
BRANCH  28  30
ATOM     30  C   UNL     1       5.946   0.750   0.000  0.00  0.00    +0.110 C 
BRANCH  30  31
ATOM     31  C   UNL     1       4.647   1.500   0.000  0.00  0.00    +0.171 C 
BRANCH  31  32
ATOM     32  O   UNL     1       3.348   0.750   0.000  0.00  0.00    -0.394 OA
ATOM     33  H   UNL     1       2.508   1.235   0.000  0.00  0.00    +0.209 HD
ENDBRANCH  31  32
ENDBRANCH  30  31
ENDBRANCH  28  30
ENDBRANCH  27  28
ENDBRANCH  19  27
BRANCH  36  37
ATOM     37  C   UNL     1      13.740   5.250   0.000  0.00  0.00    +0.193 C 
BRANCH  37  38
ATOM     38  N   UNL     1      15.039   6.000   0.000  0.00  0.00    -0.299 NA
ATOM     39  H   UNL     1      15.039   7.020   0.000  0.00  0.00    +0.123 HD
BRANCH  38  40
ATOM     40  C   UNL     1      16.339   5.250   0.000  0.00  0.00    +0.110 C 
BRANCH  40  41
ATOM     41  C   UNL     1      17.637   6.000   0.000  0.00  0.00    +0.171 C 
BRANCH  41  42
ATOM     42  O   UNL     1      18.936   5.250   0.000  0.00  0.00    -0.394 OA
ATOM     43  H   UNL     1      18.936   4.280   0.000  0.00  0.00    +0.209 HD
ENDBRANCH  41  42
ENDBRANCH  40  41
ENDBRANCH  38  40
ENDBRANCH  37  38
ENDBRANCH  36  37
BRANCH  36  44
ATOM     44  C   UNL     1      12.441   7.500   0.000  0.00  0.00    +0.193 C 
BRANCH  44  45
ATOM     45  N   UNL     1      13.740   8.250   0.000  0.00  0.00    -0.299 NA
ATOM     46  H   UNL     1      13.740   9.270   0.000  0.00  0.00    +0.123 HD
BRANCH  45  47
ATOM     47  C   UNL     1      15.039   7.500   0.000  0.00  0.00    +0.110 C 
BRANCH  47  48
ATOM     48  C   UNL     1      16.339   8.250   0.000  0.00  0.00    +0.171 C 
BRANCH  48  49
ATOM     49  O   UNL     1      17.637   7.500   0.000  0.00  0.00    -0.394 OA
ATOM     50  H   UNL     1      17.637   6.530   0.000  0.00  0.00    +0.209 HD
ENDBRANCH  48  49
ENDBRANCH  47  48
ENDBRANCH  45  47
ENDBRANCH  44  45
ENDBRANCH  36  44
TORSDOF 30