REMARK  Name = 657799
REMARK  21 active torsions:
REMARK  status: ('A' for Active; 'I' for Inactive)
REMARK    1  A    between atoms: C_2  and  O_7
REMARK    2  A    between atoms: C_3  and  C_11
REMARK    3  A    between atoms: C_6  and  O_9
REMARK    4  A    between atoms: O_7  and  C_8
REMARK    5  A    between atoms: O_9  and  C_10
REMARK    6  A    between atoms: C_11  and  C_12
REMARK    7  A    between atoms: C_12  and  N_13
REMARK    8  A    between atoms: N_13  and  C_14
REMARK    9  A    between atoms: N_13  and  C_15
REMARK   10  A    between atoms: C_15  and  C_16
REMARK   11  A    between atoms: C_16  and  C_17
REMARK   12  A    between atoms: C_17  and  C_18
REMARK   13  A    between atoms: C_18  and  C_19
REMARK   14  A    between atoms: C_18  and  C_26
REMARK   15  A    between atoms: C_18  and  C_32
REMARK   16  A    between atoms: C_23  and  O_30
REMARK   17  A    between atoms: C_24  and  O_29
REMARK   18  A    between atoms: C_26  and  C_27
REMARK   19  A    between atoms: C_26  and  C_28
REMARK   20  A    between atoms: O_29  and  C_34
REMARK   21  A    between atoms: O_30  and  C_33
REMARK                            x       y       z     vdW  Elec       q    Type
REMARK                         _______ _______ _______ _____ _____    ______ ____
ROOT
ATOM      1 CL   UNL     1     -10.145 -11.343   0.000  0.00  0.00    -0.145 Cl
ATOM      2  H   UNL     1      -8.815 -11.343   0.000  0.00  0.00    +0.145 HD
ENDROOT
TORSDOF 0