REMARK  Name = 651079
REMARK  6 active torsions:
REMARK  status: ('A' for Active; 'I' for Inactive)
REMARK    1  A    between atoms: C_3  and  N_7
REMARK    2  A    between atoms: C_10  and  C_18
REMARK    3  A    between atoms: C_15  and  O_19
REMARK    4  A    between atoms: O_19  and  C_20
REMARK    5  A    between atoms: C_20  and  C_21
REMARK    6  A    between atoms: C_21  and  C_23
REMARK                            x       y       z     vdW  Elec       q    Type
REMARK                         _______ _______ _______ _____ _____    ______ ____
ROOT
ATOM      1  O   UNL     1       4.848   6.750   0.000  0.00  0.00    -0.284 OA
ATOM      2  C   UNL     1       4.848   5.250   0.000  0.00  0.00    +0.228 C 
ATOM      3  C   UNL     1       6.147   4.500   0.000  0.00  0.00    +0.142 A 
ATOM      4  N   UNL     1       7.574   4.963   0.000  0.00  0.00    -0.224 NA
ATOM      5  C   UNL     1       8.455   3.750   0.000  0.00  0.00    +0.152 A 
ATOM      6  C   UNL     1       9.882   3.287   0.000  0.00  0.00    +0.244 C 
ATOM     12  C   UNL     1       9.882   1.787   0.000  0.00  0.00    +0.074 C 
ATOM     13  C   UNL     1       8.455   1.323   0.000  0.00  0.00    +0.128 C 
ATOM     14  N   UNL     1       7.574   2.537   0.000  0.00  0.00    -0.321 N 
ATOM     15  C   UNL     1       6.147   3.000   0.000  0.00  0.00    +0.120 A 
ATOM     16  C   UNL     1       4.848   2.250   0.000  0.00  0.00    +0.209 C 
ATOM     17  C   UNL     1       3.549   3.000   0.000  0.00  0.00    +0.023 C 
ATOM     18  C   UNL     1       2.250   2.250   0.000  0.00  0.00    +0.050 C 
ATOM     19  O   UNL     1       4.848   0.750   0.000  0.00  0.00    -0.285 OA
ATOM     20  C   UNL     1       3.549   4.500   0.000  0.00  0.00    +0.086 C 
ENDROOT
BRANCH  20  21
ATOM     21  N   UNL     1       2.250   5.250   0.000  0.00  0.00    -0.324 N 
ATOM     22  C   UNL     1       0.750   5.250   0.000  0.00  0.00    +0.124 C 
ATOM     23  C   UNL     1       1.500   6.549   0.000  0.00  0.00    +0.124 C 
ENDBRANCH  20  21
BRANCH   6   7
ATOM      7  O   UNL     1      11.095   4.168   0.000  0.00  0.00    -0.453 OA
BRANCH   7   8
ATOM      8  C   UNL     1      12.466   3.558   0.000  0.00  0.00    +0.307 C 
ATOM      9  O   UNL     1      12.623   2.066   0.000  0.00  0.00    -0.251 OA
BRANCH   8  10
ATOM     10  C   UNL     1      13.679   4.440   0.000  0.00  0.00    +0.117 C 
ATOM     11  C   UNL     1      15.050   3.830   0.000  0.00  0.00    +0.015 C 
ENDBRANCH   8  10
ENDBRANCH   7   8
ENDBRANCH   6   7
TORSDOF 4