REMARK  Name = 655255
REMARK  8 active torsions:
REMARK  status: ('A' for Active; 'I' for Inactive)
REMARK    1  A    between atoms: O_1  and  C_5
REMARK    2  A    between atoms: C_4  and  C_18
REMARK    3  A    between atoms: C_8  and  C_20
REMARK    4  A    between atoms: C_10  and  O_15
REMARK    5  A    between atoms: C_11  and  C_19
REMARK    6  A    between atoms: C_13  and  O_16
REMARK    7  A    between atoms: O_17  and  C_18
REMARK    8  A    between atoms: C_19  and  C_20
REMARK                            x       y       z     vdW  Elec       q    Type
REMARK                         _______ _______ _______ _____ _____    ______ ____
ROOT
ATOM      3  C   UNL     1       0.375  -5.149   0.000  0.00  0.00    +0.131 A 
ATOM      4  C   UNL     1       0.375  -6.649   0.000  0.00  0.00    +0.046 A 
ATOM      5  C   UNL     1      -0.924  -7.399   0.000  0.00  0.00    +0.007 A 
ATOM      6  C   UNL     1      -2.223  -6.649   0.000  0.00  0.00    -0.046 A 
ATOM     19  C   UNL     1      -2.223  -5.149   0.000  0.00  0.00    +0.022 A 
ATOM     20  C   UNL     1      -0.924  -4.399   0.000  0.00  0.00    +0.100 A 
ENDROOT
BRANCH   3   1
ATOM      1  O   UNL     1       1.674  -4.399   0.000  0.00  0.00    -0.506 OA
ATOM      2  H   UNL     1       2.485  -4.868   0.000  0.00  0.00    +0.292 HD
ENDBRANCH   3   1
BRANCH  20  21
ATOM     21  C   UNL     1      -0.924  -2.900   0.000  0.00  0.00    +0.340 C 
ATOM     24  O   UNL     1      -2.223  -2.150   0.000  0.00  0.00    -0.245 OA
BRANCH  21  22
ATOM     22  O   UNL     1       0.375  -2.150   0.000  0.00  0.00    -0.477 OA
ATOM     23  H   UNL     1       1.186  -2.618   0.000  0.00  0.00    +0.295 HD
ENDBRANCH  21  22
ENDBRANCH  20  21
BRANCH   6   7
ATOM      7  C   UNL     1      -3.522  -7.399   0.000  0.00  0.00    +0.040 C 
BRANCH   7   8
ATOM      8  C   UNL     1      -4.821  -6.649   0.000  0.00  0.00    +0.043 C 
BRANCH   8   9
ATOM      9  C   UNL     1      -6.120  -7.399   0.000  0.00  0.00    -0.002 A 
ATOM     10  C   UNL     1      -6.120  -8.899   0.000  0.00  0.00    +0.052 A 
ATOM     11  C   UNL     1      -7.419  -9.649   0.000  0.00  0.00    +0.117 A 
ATOM     14  C   UNL     1      -8.718  -8.899   0.000  0.00  0.00    +0.049 A 
ATOM     15  C   UNL     1      -8.718  -7.399   0.000  0.00  0.00    +0.049 A 
ATOM     16  C   UNL     1      -7.419  -6.649   0.000  0.00  0.00    +0.120 A 
BRANCH  11  12
ATOM     12  O   UNL     1      -7.419 -11.150   0.000  0.00  0.00    -0.507 OA
ATOM     13  H   UNL     1      -8.231 -11.618   0.000  0.00  0.00    +0.292 HD
ENDBRANCH  11  12
BRANCH  16  17
ATOM     17  O   UNL     1      -7.419  -5.149   0.000  0.00  0.00    -0.506 OA
ATOM     18  H   UNL     1      -6.608  -4.681   0.000  0.00  0.00    +0.292 HD
ENDBRANCH  16  17
ENDBRANCH   8   9
ENDBRANCH   7   8
ENDBRANCH   6   7
TORSDOF 8