REMARK  Name = 653558
REMARK  19 active torsions:
REMARK  status: ('A' for Active; 'I' for Inactive)
REMARK    1  A    between atoms: GE_1  and  C_2
REMARK    2  A    between atoms: GE_1  and  C_4
REMARK    3  A    between atoms: GE_1  and  C_5
REMARK    4  A    between atoms: GE_1  and  O_8
REMARK    5  A    between atoms: C_2  and  C_3
REMARK    6  A    between atoms: C_4  and  C_7
REMARK    7  A    between atoms: C_5  and  C_6
REMARK    8  A    between atoms: O_8  and  C_9
REMARK    9  A    between atoms: C_9  and  C_11
REMARK   10  A    between atoms: C_11  and  C_12
REMARK   11  A    between atoms: C_12  and  C_13
REMARK   12  A    between atoms: C_13  and  O_15
REMARK   13  A    between atoms: O_15  and  GE_16
REMARK   14  A    between atoms: GE_16  and  C_17
REMARK   15  A    between atoms: GE_16  and  C_19
REMARK   16  A    between atoms: GE_16  and  C_21
REMARK   17  A    between atoms: C_17  and  C_18
REMARK   18  A    between atoms: C_19  and  C_20
REMARK   19  A    between atoms: C_21  and  C_22
REMARK                            x       y       z     vdW  Elec       q    Type
REMARK                         _______ _______ _______ _____ _____    ______ ____
ROOT
ATOM      4  C   UNL     1      -4.346  -7.473   0.000  0.00  0.00    +0.000 C 
ENDROOT
BRANCH   4   3
ATOM      3  C   UNL     1      -5.645  -8.223   0.000  0.00  0.00    +0.000 C 
ATOM     16  O   UNL     1      -5.645  -9.723   0.000  0.00  0.00    +0.000 OA
BRANCH   3   2
ATOM      2  O   UNL     1      -6.944  -7.473   0.000  0.00  0.00    +0.000 OA
BRANCH   2   1
ATOM      1 GE   UNL     1      -8.243  -8.223   0.000  0.00  0.00    +0.000 Ge
BRANCH   1  17
ATOM     17  C   UNL     1      -9.542  -8.973   0.000  0.00  0.00    +0.000 C 
ATOM     18  C   UNL     1      -9.542 -10.473   0.000  0.00  0.00    +0.000 C 
ENDBRANCH   1  17
BRANCH   1  19
ATOM     19  C   UNL     1      -7.493  -9.522   0.000  0.00  0.00    +0.000 C 
ATOM     20  C   UNL     1      -8.243 -10.821   0.000  0.00  0.00    +0.000 C 
ENDBRANCH   1  19
BRANCH   1  21
ATOM     21  C   UNL     1      -8.993  -6.924   0.000  0.00  0.00    +0.000 C 
ATOM     22  C   UNL     1     -10.493  -6.924   0.000  0.00  0.00    +0.000 C 
ENDBRANCH   1  21
ENDBRANCH   2   1
ENDBRANCH   3   2
ENDBRANCH   4   3
BRANCH   4   5
ATOM      5  C   UNL     1      -3.047  -8.223   0.000  0.00  0.00    +0.000 C 
BRANCH   5   6
ATOM      6  C   UNL     1      -1.748  -7.473   0.000  0.00  0.00    +0.000 C 
ATOM     15  O   UNL     1      -1.748  -5.973   0.000  0.00  0.00    +0.000 OA
BRANCH   6   7
ATOM      7  O   UNL     1      -0.449  -8.223   0.000  0.00  0.00    +0.000 OA
BRANCH   7   8
ATOM      8 GE   UNL     1       0.851  -7.473   0.000  0.00  0.00    +0.000 Ge
BRANCH   8   9
ATOM      9  C   UNL     1       2.150  -6.723   0.000  0.00  0.00    +0.000 C 
ATOM     10  C   UNL     1       2.150  -5.223   0.000  0.00  0.00    +0.000 C 
ENDBRANCH   8   9
BRANCH   8  11
ATOM     11  C   UNL     1       0.101  -6.174   0.000  0.00  0.00    +0.000 C 
ATOM     12  C   UNL     1       0.851  -4.875   0.000  0.00  0.00    +0.000 C 
ENDBRANCH   8  11
BRANCH   8  13
ATOM     13  C   UNL     1       1.601  -8.772   0.000  0.00  0.00    +0.000 C 
ATOM     14  C   UNL     1       3.100  -8.772   0.000  0.00  0.00    +0.000 C 
ENDBRANCH   8  13
ENDBRANCH   7   8
ENDBRANCH   6   7
ENDBRANCH   5   6
ENDBRANCH   4   5
TORSDOF 13