REMARK  Name = 648419
REMARK  10 active torsions:
REMARK  status: ('A' for Active; 'I' for Inactive)
REMARK    1  A    between atoms: C_1  and  O_7
REMARK    2  A    between atoms: C_2  and  O_9
REMARK    3  A    between atoms: C_3  and  O_10
REMARK    4  A    between atoms: C_5  and  C_13
REMARK    5  A    between atoms: O_7  and  C_8
REMARK    6  A    between atoms: O_9  and  C_12
REMARK    7  A    between atoms: O_10  and  C_11
REMARK    8  A    between atoms: C_13  and  C_14
REMARK    9  A    between atoms: C_14  and  C_16
REMARK   10  A    between atoms: C_17  and  C_22
REMARK                            x       y       z     vdW  Elec       q    Type
REMARK                         _______ _______ _______ _____ _____    ______ ____
ROOT
ATOM      7  C   UNL     1      -7.535   0.697   0.000  0.00  0.00    +0.168 C 
ATOM     23  O   UNL     1      -7.535   2.197   0.000  0.00  0.00    -0.292 OA
ENDROOT
BRANCH   7   8
ATOM      8  C   UNL     1      -6.236  -0.053   0.000  0.00  0.00    +0.029 A 
ATOM      9  C   UNL     1      -4.937   0.697   0.000  0.00  0.00    +0.061 A 
ATOM     10  C   UNL     1      -3.638  -0.053   0.000  0.00  0.00    +0.167 A 
ATOM     11  O   UNL     1      -2.211   0.411   0.000  0.00  0.00    -0.453 OA
ATOM     12  C   UNL     1      -1.330  -0.803   0.000  0.00  0.00    +0.466 C 
ATOM     13  O   UNL     1      -2.211  -2.016   0.000  0.00  0.00    -0.453 OA
ATOM     14  C   UNL     1      -3.638  -1.553   0.000  0.00  0.00    +0.167 A 
ATOM     15  C   UNL     1      -4.937  -2.303   0.000  0.00  0.00    +0.058 A 
ATOM     16  C   UNL     1      -6.236  -1.553   0.000  0.00  0.00    -0.004 A 
BRANCH  16  17
ATOM     17  C   UNL     1      -7.535  -2.303   0.000  0.00  0.00    -0.017 A 
ATOM     18  C   UNL     1      -7.535  -3.803   0.000  0.00  0.00    +0.008 A 
ATOM     19  C   UNL     1      -8.834  -4.553   0.000  0.00  0.00    +0.001 A 
ATOM     20  C   UNL     1     -10.133  -3.803   0.000  0.00  0.00    +0.000 A 
ATOM     21  C   UNL     1     -10.133  -2.303   0.000  0.00  0.00    +0.001 A 
ATOM     22  C   UNL     1      -8.834  -1.553   0.000  0.00  0.00    +0.008 A 
ENDBRANCH  16  17
ENDBRANCH   7   8
BRANCH   7   6
ATOM      6  C   UNL     1      -8.834  -0.053   0.000  0.00  0.00    +0.115 C 
BRANCH   6   5
ATOM      1  C   UNL     1     -11.432   2.947   0.000  0.00  0.00    +0.165 A 
ATOM      4  C   UNL     1     -10.133   2.197   0.000  0.00  0.00    +0.053 A 
ATOM      5  C   UNL     1     -10.133   0.697   0.000  0.00  0.00    -0.033 A 
ATOM     24  C   UNL     1     -11.432  -0.053   0.000  0.00  0.00    +0.053 A 
ATOM     25  C   UNL     1     -12.731   0.697   0.000  0.00  0.00    +0.165 A 
ATOM     28  C   UNL     1     -12.731   2.197   0.000  0.00  0.00    +0.204 A 
BRANCH   1   2
ATOM      2  O   UNL     1     -11.432   4.447   0.000  0.00  0.00    -0.491 OA
ATOM      3  C   UNL     1     -12.731   5.197   0.000  0.00  0.00    +0.277 C 
ENDBRANCH   1   2
BRANCH  25  26
ATOM     26  O   UNL     1     -14.030  -0.053   0.000  0.00  0.00    -0.491 OA
ATOM     27  C   UNL     1     -15.329   0.697   0.000  0.00  0.00    +0.277 C 
ENDBRANCH  25  26
BRANCH  28  29
ATOM     29  O   UNL     1     -14.030   2.947   0.000  0.00  0.00    -0.488 OA
ATOM     30  C   UNL     1     -15.329   2.197   0.000  0.00  0.00    +0.277 C 
ENDBRANCH  28  29
ENDBRANCH   6   5
ENDBRANCH   7   6
TORSDOF 7