REMARK  Name = 644735
REMARK  7 active torsions:
REMARK  status: ('A' for Active; 'I' for Inactive)
REMARK    1  A    between atoms: N_1  and  C_2
REMARK    2  A    between atoms: C_10  and  C_12
REMARK    3  A    between atoms: C_12  and  N_13
REMARK    4  A    between atoms: C_12  and  C_16
REMARK    5  A    between atoms: C_16  and  C_18
REMARK    6  A    between atoms: N_20  and  C_21
REMARK    7  A    between atoms: C_26  and  C_27
REMARK                            x       y       z     vdW  Elec       q    Type
REMARK                         _______ _______ _______ _____ _____    ______ ____
ROOT
ATOM     11  C   UNL     1       9.843   3.750   0.000  0.00  0.00    +0.454 C 
ENDROOT
BRANCH  11  10
ATOM      4  C   UNL     1       3.348   3.000   0.000  0.00  0.00    +0.275 A 
ATOM      5  C   UNL     1       3.348   1.500   0.000  0.00  0.00    +0.086 A 
ATOM      6  C   UNL     1       4.647   0.750   0.000  0.00  0.00    +0.036 A 
ATOM      7  C   UNL     1       5.946   1.500   0.000  0.00  0.00    +0.090 A 
ATOM      8  N   UNL     1       7.245   0.750   0.000  0.00  0.00    -0.251 NA
ATOM      9  C   UNL     1       8.544   1.500   0.000  0.00  0.00    +0.142 A 
ATOM     10  C   UNL     1       8.544   3.000   0.000  0.00  0.00    +0.141 A 
ATOM     28  N   UNL     1       7.245   3.750   0.000  0.00  0.00    -0.241 NA
ATOM     29  C   UNL     1       5.946   3.000   0.000  0.00  0.00    +0.096 A 
ATOM     30  C   UNL     1       4.647   3.750   0.000  0.00  0.00    +0.114 A 
BRANCH   4   1
ATOM      1  N   UNL     1       2.049   3.750   0.000  0.00  0.00    +0.080 N 
ATOM      2  O   UNL     1       2.049   5.250   0.000  0.00  0.00    +0.041 OA
ATOM      3  O   UNL     1       0.750   3.000   0.000  0.00  0.00    -0.576 OA
ENDBRANCH   4   1
ENDBRANCH  11  10
BRANCH  11  25
ATOM     25  N   UNL     1       9.843   5.250   0.000  0.00  0.00    +0.056 N 
ATOM     26  O   UNL     1      11.142   6.000   0.000  0.00  0.00    +0.036 OA
ATOM     27  O   UNL     1       8.544   6.000   0.000  0.00  0.00    -0.581 OA
ENDBRANCH  11  25
BRANCH  11  12
ATOM     12  C   UNL     1      11.142   3.000   0.000  0.00  0.00    +0.297 C 
ATOM     24  O   UNL     1      11.142   1.500   0.000  0.00  0.00    -0.279 OA
BRANCH  12  13
ATOM     13  C   UNL     1      12.441   3.750   0.000  0.00  0.00    +0.291 C 
ATOM     14  N   UNL     1      13.740   3.000   0.000  0.00  0.00    -0.279 N 
ATOM     15  H   UNL     1      13.740   2.016   0.000  0.00  0.00    +0.155 HD
ATOM     23  O   UNL     1      12.441   5.250   0.000  0.00  0.00    -0.266 OA
BRANCH  14  16
ATOM     16  C   UNL     1      15.039   3.750   0.000  0.00  0.00    +0.037 A 
ATOM     17  C   UNL     1      16.339   3.000   0.000  0.00  0.00    -0.029 A 
ATOM     18  C   UNL     1      16.339   1.500   0.000  0.00  0.00    +0.045 C 
ATOM     19  C   UNL     1      17.637   3.750   0.000  0.00  0.00    +0.005 A 
ATOM     20  C   UNL     1      17.637   5.250   0.000  0.00  0.00    +0.000 A 
ATOM     21  C   UNL     1      16.339   6.000   0.000  0.00  0.00    +0.002 A 
ATOM     22  C   UNL     1      15.039   5.250   0.000  0.00  0.00    +0.023 A 
ENDBRANCH  14  16
ENDBRANCH  12  13
ENDBRANCH  11  12
TORSDOF 6