REMARK  Name = 648422
REMARK  9 active torsions:
REMARK  status: ('A' for Active; 'I' for Inactive)
REMARK    1  A    between atoms: C_5  and  C_10
REMARK    2  A    between atoms: C_10  and  C_12
REMARK    3  A    between atoms: C_11  and  C_13
REMARK    4  A    between atoms: C_16  and  O_23
REMARK    5  A    between atoms: C_17  and  O_19
REMARK    6  A    between atoms: C_18  and  O_21
REMARK    7  A    between atoms: O_19  and  C_20
REMARK    8  A    between atoms: O_21  and  C_22
REMARK    9  A    between atoms: O_23  and  C_24
REMARK                            x       y       z     vdW  Elec       q    Type
REMARK                         _______ _______ _______ _____ _____    ______ ____
ROOT
ATOM      7  C   UNL     1      -9.241   2.067   0.000  0.00  0.00    -0.043 C 
ATOM      8  C   UNL     1      -9.552   0.600   0.000  0.00  0.00    +0.044 C 
ATOM      9  C   UNL     1      -7.814   2.530   0.000  0.00  0.00    +0.012 C 
ENDROOT
BRANCH   7   6
ATOM      1  C   UNL     1     -11.158   5.541   0.000  0.00  0.00    +0.167 A 
ATOM      2  O   UNL     1     -11.158   7.041   0.000  0.00  0.00    -0.453 OA
ATOM      3  C   UNL     1     -12.585   7.505   0.000  0.00  0.00    +0.466 C 
ATOM      4  O   UNL     1     -13.466   6.292   0.000  0.00  0.00    -0.453 OA
ATOM      5  C   UNL     1     -10.043   4.538   0.000  0.00  0.00    +0.057 A 
ATOM      6  C   UNL     1     -10.355   3.071   0.000  0.00  0.00    -0.018 A 
ATOM     22  C   UNL     1     -11.782   2.607   0.000  0.00  0.00    +0.012 A 
ATOM     23  C   UNL     1     -12.897   3.611   0.000  0.00  0.00    +0.050 A 
ATOM     24  C   UNL     1     -12.585   5.078   0.000  0.00  0.00    +0.166 A 
ENDBRANCH   7   6
BRANCH   9  10
ATOM     10  C   UNL     1      -6.699   1.527   0.000  0.00  0.00    -0.018 A 
ATOM     11  C   UNL     1      -7.011   0.059   0.000  0.00  0.00    +0.057 A 
ATOM     12  C   UNL     1      -5.896  -0.944   0.000  0.00  0.00    +0.166 A 
ATOM     15  C   UNL     1      -4.470  -0.481   0.000  0.00  0.00    +0.204 A 
ATOM     18  C   UNL     1      -4.158   0.987   0.000  0.00  0.00    +0.166 A 
ATOM     21  C   UNL     1      -5.273   1.990   0.000  0.00  0.00    +0.057 A 
BRANCH  12  13
ATOM     13  O   UNL     1      -6.208  -2.412   0.000  0.00  0.00    -0.491 OA
ATOM     14  C   UNL     1      -5.093  -3.415   0.000  0.00  0.00    +0.277 C 
ENDBRANCH  12  13
BRANCH  15  16
ATOM     16  O   UNL     1      -3.355  -1.484   0.000  0.00  0.00    -0.488 OA
ATOM     17  C   UNL     1      -1.928  -1.021   0.000  0.00  0.00    +0.277 C 
ENDBRANCH  15  16
BRANCH  18  19
ATOM     19  O   UNL     1      -2.731   1.450   0.000  0.00  0.00    -0.491 OA
ATOM     20  C   UNL     1      -1.617   0.446   0.000  0.00  0.00    +0.277 C 
ENDBRANCH  18  19
ENDBRANCH   9  10
TORSDOF 5