REMARK  Name = 645567
REMARK  22 active torsions:
REMARK  status: ('A' for Active; 'I' for Inactive)
REMARK    1  A    between atoms: SN_1  and  C_4
REMARK    2  A    between atoms: C_11  and  N_12
REMARK    3  A    between atoms: C_11  and  P_15
REMARK    4  A    between atoms: C_11  and  P_25
REMARK    5  A    between atoms: N_12  and  C_13
REMARK    6  A    between atoms: N_12  and  C_14
REMARK    7  A    between atoms: P_15  and  O_17
REMARK    8  A    between atoms: P_15  and  O_18
REMARK    9  A    between atoms: O_17  and  C_19
REMARK   10  A    between atoms: O_18  and  C_22
REMARK   11  A    between atoms: C_19  and  C_20
REMARK   12  A    between atoms: C_19  and  C_21
REMARK   13  A    between atoms: C_22  and  C_23
REMARK   14  A    between atoms: C_22  and  C_24
REMARK   15  A    between atoms: P_25  and  O_27
REMARK   16  A    between atoms: P_25  and  O_31
REMARK   17  A    between atoms: O_27  and  C_28
REMARK   18  A    between atoms: C_28  and  C_29
REMARK   19  A    between atoms: C_28  and  C_30
REMARK   20  A    between atoms: O_31  and  C_32
REMARK   21  A    between atoms: C_32  and  C_33
REMARK   22  A    between atoms: C_32  and  C_34
REMARK                            x       y       z     vdW  Elec       q    Type
REMARK                         _______ _______ _______ _____ _____    ______ ____
ROOT
ATOM      1  C   UNL     1      -8.722   6.107   0.000  0.00  0.00    +0.000 C 
ENDROOT
BRANCH   1  22
ATOM     22  N   UNL     1     -10.021   5.357   0.000  0.00  0.00    +0.000 NA
ATOM     23  C   UNL     1     -10.021   3.857   0.000  0.00  0.00    +0.000 C 
ATOM     24  C   UNL     1     -11.320   6.107   0.000  0.00  0.00    +0.000 C 
ENDBRANCH   1  22
BRANCH   1   2
ATOM      2  P   UNL     1      -8.722   7.607   0.000  0.00  0.00    +0.000 P 
ATOM     11  O   UNL     1      -7.222   7.607   0.000  0.00  0.00    +0.000 OA
BRANCH   2   3
ATOM      3  O   UNL     1     -12.413   7.607   0.000  0.00  0.00    +0.000 OA
BRANCH   3   4
ATOM      4  C   UNL     1     -13.163   6.308   0.000  0.00  0.00    +0.000 C 
ATOM      5  C   UNL     1     -12.413   5.009   0.000  0.00  0.00    +0.000 C 
ATOM      6  C   UNL     1     -14.663   6.308   0.000  0.00  0.00    +0.000 C 
ENDBRANCH   3   4
ENDBRANCH   2   3
BRANCH   2   7
ATOM      7  O   UNL     1      -8.722   9.107   0.000  0.00  0.00    +0.000 OA
BRANCH   7   8
ATOM      8  C   UNL     1     -11.918  10.953   0.000  0.00  0.00    +0.000 C 
ATOM      9  C   UNL     1     -11.918  12.453   0.000  0.00  0.00    +0.000 C 
ATOM     10  C   UNL     1     -13.217  10.203   0.000  0.00  0.00    +0.000 C 
ENDBRANCH   7   8
ENDBRANCH   2   7
ENDBRANCH   1   2
BRANCH   1  12
ATOM     12  P   UNL     1      -7.423   5.357   0.000  0.00  0.00    +0.000 P 
ATOM     21  O   UNL     1      -6.673   6.656   0.000  0.00  0.00    +0.000 OA
BRANCH  12  13
ATOM     13  O   UNL     1      -8.173   4.058   0.000  0.00  0.00    +0.000 OA
BRANCH  13  14
ATOM     14  C   UNL     1      -7.423   2.759   0.000  0.00  0.00    +0.000 C 
ATOM     15  C   UNL     1      -5.923   2.759   0.000  0.00  0.00    +0.000 C 
ATOM     16  C   UNL     1      -8.173   1.460   0.000  0.00  0.00    +0.000 C 
ENDBRANCH  13  14
ENDBRANCH  12  13
BRANCH  12  17
ATOM     17  O   UNL     1      -6.124   4.607   0.000  0.00  0.00    +0.000 OA
BRANCH  17  18
ATOM     18  C   UNL     1      -4.825   5.357   0.000  0.00  0.00    +0.000 C 
ATOM     19  C   UNL     1      -3.526   4.607   0.000  0.00  0.00    +0.000 C 
ATOM     20  C   UNL     1      -4.825   6.857   0.000  0.00  0.00    +0.000 C 
ENDBRANCH  17  18
ENDBRANCH  12  17
ENDBRANCH   1  12
TORSDOF 11