REMARK  Name = 643148
REMARK  4 active torsions:
REMARK  status: ('A' for Active; 'I' for Inactive)
REMARK    1  A    between atoms: C_1  and  N_7
REMARK    2  A    between atoms: C_4  and  C_21
REMARK    3  A    between atoms: C_11  and  C_21
REMARK    4  A    between atoms: C_21  and  C_22
REMARK                            x       y       z     vdW  Elec       q    Type
REMARK                         _______ _______ _______ _____ _____    ______ ____
ROOT
ATOM      8  C   UNL     1       6.673 -11.536   0.000  0.00  0.00    +0.055 C 
ENDROOT
BRANCH   8   9
ATOM      9  C   UNL     1       4.919 -12.549   0.000  0.00  0.00    +0.140 C 
ATOM     10  C   UNL     1       3.549 -11.939   0.000  0.00  0.00    +0.175 C 
ATOM     11  O   UNL     1       3.237 -10.472   0.000  0.00  0.00    -0.291 OA
ATOM     12  C   UNL     1       2.545 -13.054   0.000  0.00  0.00    +0.029 A 
ATOM     13  C   UNL     1       1.045 -13.054   0.000  0.00  0.00    +0.012 A 
ATOM     14  C   UNL     1       0.295 -14.352   0.000  0.00  0.00    +0.001 A 
ATOM     15  C   UNL     1       1.045 -15.652   0.000  0.00  0.00    +0.001 A 
ATOM     16  C   UNL     1       2.545 -15.652   0.000  0.00  0.00    +0.012 A 
ATOM     17  C   UNL     1       3.295 -14.352   0.000  0.00  0.00    +0.029 A 
ATOM     18  C   UNL     1       4.763 -14.041   0.000  0.00  0.00    +0.175 C 
ATOM     19  O   UNL     1       5.877 -15.044   0.000  0.00  0.00    -0.291 OA
ENDBRANCH   8   9
BRANCH   8  20
ATOM     20  C   UNL     1       8.427 -12.549   0.000  0.00  0.00    +0.140 C 
ATOM     21  C   UNL     1       8.584 -14.041   0.000  0.00  0.00    +0.175 C 
ATOM     22  O   UNL     1       7.469 -15.044   0.000  0.00  0.00    -0.291 OA
ATOM     23  C   UNL     1      10.051 -14.352   0.000  0.00  0.00    +0.029 A 
ATOM     24  C   UNL     1      10.801 -15.652   0.000  0.00  0.00    +0.012 A 
ATOM     25  C   UNL     1      12.301 -15.652   0.000  0.00  0.00    +0.001 A 
ATOM     26  C   UNL     1      13.051 -14.352   0.000  0.00  0.00    +0.001 A 
ATOM     27  C   UNL     1      12.301 -13.054   0.000  0.00  0.00    +0.012 A 
ATOM     28  C   UNL     1      10.801 -13.054   0.000  0.00  0.00    +0.029 A 
ATOM     29  C   UNL     1       9.797 -11.939   0.000  0.00  0.00    +0.175 C 
ATOM     30  O   UNL     1      10.109 -10.472   0.000  0.00  0.00    -0.291 OA
ENDBRANCH   8  20
BRANCH   8   7
ATOM      1  C   UNL     1       6.673  -7.036   0.000  0.00  0.00    +0.273 A 
ATOM      5  C   UNL     1       7.972  -7.786   0.000  0.00  0.00    +0.084 A 
ATOM      6  C   UNL     1       7.972  -9.286   0.000  0.00  0.00    +0.010 A 
ATOM      7  C   UNL     1       6.673 -10.036   0.000  0.00  0.00    -0.042 A 
ATOM     31  C   UNL     1       5.374  -9.286   0.000  0.00  0.00    +0.010 A 
ATOM     32  C   UNL     1       5.374  -7.786   0.000  0.00  0.00    +0.084 A 
BRANCH   1   2
ATOM      2  N   UNL     1       6.673  -5.536   0.000  0.00  0.00    +0.080 N 
ATOM      3  O   UNL     1       7.972  -4.786   0.000  0.00  0.00    +0.041 OA
ATOM      4  O   UNL     1       5.374  -4.786   0.000  0.00  0.00    -0.576 OA
ENDBRANCH   1   2
ENDBRANCH   8   7
TORSDOF 4