REMARK  Name = 643351
REMARK  10 active torsions:
REMARK  status: ('A' for Active; 'I' for Inactive)
REMARK    1  A    between atoms: N_1  and  C_2
REMARK    2  A    between atoms: N_1  and  C_3
REMARK    3  A    between atoms: N_1  and  C_4
REMARK    4  A    between atoms: C_7  and  C_10
REMARK    5  A    between atoms: C_11  and  C_12
REMARK    6  A    between atoms: N_15  and  C_16
REMARK    7  A    between atoms: N_15  and  C_17
REMARK    8  A    between atoms: N_15  and  C_18
REMARK    9  A    between atoms: C_21  and  C_24
REMARK   10  A    between atoms: C_25  and  C_26
REMARK                            x       y       z     vdW  Elec       q    Type
REMARK                         _______ _______ _______ _____ _____    ______ ____
ROOT
ATOM      8  C   UNL     1     -10.659   2.690   0.000  0.00  0.00    +0.000 C 
ATOM      9  O   UNL     1     -10.270   1.241   0.000  0.00  0.00    -0.500 OA
ATOM     10 CU   UNL     1     -11.719   0.853   0.000  0.00  0.00    +0.000 Cu
ATOM     11  O   UNL     1     -11.331  -0.596   0.000  0.00  0.00    -0.500 OA
ATOM     12  C   UNL     1     -12.780  -0.985   0.000  0.00  0.00    +0.000 C 
ATOM     24  O   UNL     1     -13.168   0.464   0.000  0.00  0.00    -0.500 OA
ATOM     25  O   UNL     1     -12.108   2.301   0.000  0.00  0.00    -0.500 OA
ENDROOT
BRANCH   8   7
ATOM      6  C   UNL     1     -10.659   5.288   0.000  0.00  0.00    +0.000 C 
ATOM      7  C   UNL     1      -9.909   3.989   0.000  0.00  0.00    +0.000 C 
BRANCH   6   5
ATOM      2  C   UNL     1      -8.409   9.185   0.000  0.00  0.00    +0.000 A 
ATOM      3  C   UNL     1      -9.909   9.185   0.000  0.00  0.00    +0.000 A 
ATOM      4  C   UNL     1     -10.659   7.886   0.000  0.00  0.00    +0.000 A 
ATOM      5  C   UNL     1      -9.909   6.587   0.000  0.00  0.00    +0.000 A 
ATOM     26  C   UNL     1      -8.409   6.587   0.000  0.00  0.00    +0.000 A 
ATOM     27  C   UNL     1      -7.659   7.886   0.000  0.00  0.00    +0.000 A 
BRANCH   2   1
ATOM      1  N   UNL     1      -7.659  10.484   0.000  0.00  0.00    +0.000 N 
ATOM     28  C   UNL     1      -8.409  11.783   0.000  0.00  0.00    +0.000 C 
ATOM     29  C   UNL     1      -6.159  10.484   0.000  0.00  0.00    +0.000 C 
ENDBRANCH   2   1
ENDBRANCH   6   5
ENDBRANCH   8   7
BRANCH  12  13
ATOM     13  C   UNL     1     -13.530  -2.284   0.000  0.00  0.00    +0.000 C 
ATOM     14  C   UNL     1     -12.780  -3.583   0.000  0.00  0.00    +0.000 C 
BRANCH  14  15
ATOM     15  C   UNL     1     -13.530  -4.882   0.000  0.00  0.00    +0.000 A 
ATOM     16  C   UNL     1     -12.780  -6.181   0.000  0.00  0.00    +0.000 A 
ATOM     17  C   UNL     1     -13.530  -7.480   0.000  0.00  0.00    +0.000 A 
ATOM     18  C   UNL     1     -15.030  -7.480   0.000  0.00  0.00    +0.000 A 
ATOM     19  C   UNL     1     -15.780  -6.181   0.000  0.00  0.00    +0.000 A 
ATOM     23  C   UNL     1     -15.030  -4.882   0.000  0.00  0.00    +0.000 A 
BRANCH  18  20
ATOM     20  N   UNL     1     -15.780  -8.779   0.000  0.00  0.00    +0.000 N 
ATOM     21  C   UNL     1     -15.030 -10.078   0.000  0.00  0.00    +0.000 C 
ATOM     22  C   UNL     1     -17.280  -8.779   0.000  0.00  0.00    +0.000 C 
ENDBRANCH  18  20
ENDBRANCH  14  15
ENDBRANCH  12  13
TORSDOF 6