REMARK  Name = 643163
REMARK  4 active torsions:
REMARK  status: ('A' for Active; 'I' for Inactive)
REMARK    1  A    between atoms: C_3  and  N_16
REMARK    2  A    between atoms: C_6  and  C_7
REMARK    3  A    between atoms: N_16  and  C_17
REMARK    4  A    between atoms: N_16  and  C_18
REMARK                            x       y       z     vdW  Elec       q    Type
REMARK                         _______ _______ _______ _____ _____    ______ ____
ROOT
ATOM      3  C   UNL     1       1.210  -8.404   0.000  0.00  0.00    +0.015 C 
ATOM      4  C   UNL     1       1.210  -6.904   0.000  0.00  0.00    +0.005 C 
ATOM      5  C   UNL     1       2.424  -6.022   0.000  0.00  0.00    +0.074 C 
ATOM      6  C   UNL     1       1.960  -4.596   0.000  0.00  0.00    -0.032 A 
ATOM      7  C   UNL     1       2.710  -3.297   0.000  0.00  0.00    +0.004 A 
ATOM      8  C   UNL     1       1.960  -1.998   0.000  0.00  0.00    +0.000 A 
ATOM      9  C   UNL     1       0.460  -1.998   0.000  0.00  0.00    +0.001 A 
ATOM     10  C   UNL     1      -0.290  -3.297   0.000  0.00  0.00    +0.012 A 
ATOM     11  C   UNL     1       0.460  -4.596   0.000  0.00  0.00    +0.025 A 
ATOM     12  C   UNL     1      -0.003  -6.022   0.000  0.00  0.00    +0.190 C 
ATOM     13  O   UNL     1      -1.430  -6.486   0.000  0.00  0.00    -0.287 OA
ENDROOT
BRANCH   3   2
ATOM      1  C   UNL     1       2.509 -10.654   0.000  0.00  0.00    +0.025 A 
ATOM      2  C   UNL     1       2.509  -9.154   0.000  0.00  0.00    -0.023 A 
ATOM     14  C   UNL     1       3.808  -8.404   0.000  0.00  0.00    +0.010 A 
ATOM     15  C   UNL     1       5.107  -9.154   0.000  0.00  0.00    +0.025 A 
ATOM     16  C   UNL     1       5.107 -10.654   0.000  0.00  0.00    +0.043 A 
ATOM     20  C   UNL     1       3.808 -11.404   0.000  0.00  0.00    +0.039 A 
ATOM     21 BR   UNL     1       3.808 -12.904   0.000  0.00  0.00    -0.048 Br
BRANCH  16  17
ATOM     17  N   UNL     1       6.406 -11.404   0.000  0.00  0.00    -0.335 N 
ATOM     18  C   UNL     1       6.406 -12.904   0.000  0.00  0.00    +0.129 C 
ATOM     19  C   UNL     1       7.705 -10.654   0.000  0.00  0.00    +0.129 C 
ENDBRANCH  16  17
ENDBRANCH   3   2
TORSDOF 2