REMARK  Name = 643174
REMARK  5 active torsions:
REMARK  status: ('A' for Active; 'I' for Inactive)
REMARK    1  A    between atoms: C_1  and  O_7
REMARK    2  A    between atoms: C_2  and  O_9
REMARK    3  A    between atoms: C_5  and  C_11
REMARK    4  A    between atoms: O_7  and  C_8
REMARK    5  A    between atoms: O_9  and  C_10
REMARK                            x       y       z     vdW  Elec       q    Type
REMARK                         _______ _______ _______ _____ _____    ______ ____
ROOT
ATOM      6  C   UNL     1       1.860  -8.779   0.000  0.00  0.00    +0.015 C 
ATOM      7  C   UNL     1       1.860  -7.279   0.000  0.00  0.00    +0.005 C 
ATOM      8  C   UNL     1       3.073  -6.397   0.000  0.00  0.00    +0.074 C 
ATOM      9  C   UNL     1       2.610  -4.971   0.000  0.00  0.00    -0.032 A 
ATOM     10  C   UNL     1       3.360  -3.672   0.000  0.00  0.00    +0.004 A 
ATOM     11  C   UNL     1       2.610  -2.373   0.000  0.00  0.00    +0.000 A 
ATOM     12  C   UNL     1       1.110  -2.373   0.000  0.00  0.00    +0.001 A 
ATOM     13  C   UNL     1       0.360  -3.672   0.000  0.00  0.00    +0.012 A 
ATOM     14  C   UNL     1       1.110  -4.971   0.000  0.00  0.00    +0.025 A 
ATOM     15  C   UNL     1       0.646  -6.397   0.000  0.00  0.00    +0.190 C 
ATOM     16  O   UNL     1      -0.780  -6.861   0.000  0.00  0.00    -0.287 OA
ENDROOT
BRANCH   6   5
ATOM      1  C   UNL     1       4.458 -11.779   0.000  0.00  0.00    +0.162 A 
ATOM      4  C   UNL     1       3.159 -11.029   0.000  0.00  0.00    +0.057 A 
ATOM      5  C   UNL     1       3.159  -9.529   0.000  0.00  0.00    -0.021 A 
ATOM     17  C   UNL     1       4.458  -8.779   0.000  0.00  0.00    +0.012 A 
ATOM     18  C   UNL     1       5.757  -9.529   0.000  0.00  0.00    +0.050 A 
ATOM     19  C   UNL     1       5.757 -11.029   0.000  0.00  0.00    +0.162 A 
BRANCH   1   2
ATOM      2  O   UNL     1       4.458 -13.279   0.000  0.00  0.00    -0.491 OA
ATOM      3  C   UNL     1       5.757 -14.029   0.000  0.00  0.00    +0.277 C 
ENDBRANCH   1   2
BRANCH  19  20
ATOM     20  O   UNL     1       7.056 -11.779   0.000  0.00  0.00    -0.491 OA
ATOM     21  C   UNL     1       7.056 -13.279   0.000  0.00  0.00    +0.277 C 
ENDBRANCH  19  20
ENDBRANCH   6   5
TORSDOF 3