REMARK  Name = 643834
REMARK  58 active torsions:
REMARK  status: ('A' for Active; 'I' for Inactive)
REMARK    1  A    between atoms: C_1  and  C_2
REMARK    2  A    between atoms: C_2  and  C_3
REMARK    3  A    between atoms: C_3  and  C_4
REMARK    4  A    between atoms: C_4  and  C_14
REMARK    5  A    between atoms: C_5  and  C_6
REMARK    6  A    between atoms: C_5  and  C_21
REMARK    7  A    between atoms: C_6  and  C_7
REMARK    8  A    between atoms: C_7  and  C_8
REMARK    9  A    between atoms: C_8  and  C_9
REMARK   10  A    between atoms: C_9  and  C_10
REMARK   11  A    between atoms: C_10  and  O_12
REMARK   12  A    between atoms: O_12  and  C_13
REMARK   13  A    between atoms: C_13  and  C_34
REMARK   14  A    between atoms: C_15  and  C_16
REMARK   15  A    between atoms: C_17  and  C_18
REMARK   16  A    between atoms: C_19  and  C_20
REMARK   17  A    between atoms: C_20  and  C_21
REMARK   18  A    between atoms: C_22  and  C_23
REMARK   19  A    between atoms: C_23  and  C_24
REMARK   20  A    between atoms: C_24  and  C_25
REMARK   21  A    between atoms: C_25  and  C_35
REMARK   22  A    between atoms: C_26  and  C_27
REMARK   23  A    between atoms: C_26  and  C_42
REMARK   24  A    between atoms: C_27  and  C_28
REMARK   25  A    between atoms: C_28  and  C_29
REMARK   26  A    between atoms: C_29  and  C_30
REMARK   27  A    between atoms: C_30  and  C_31
REMARK   28  A    between atoms: C_31  and  O_33
REMARK   29  A    between atoms: O_33  and  C_34
REMARK   30  A    between atoms: C_34  and  C_51
REMARK   31  A    between atoms: C_36  and  C_37
REMARK   32  A    between atoms: C_38  and  C_39
REMARK   33  A    between atoms: C_40  and  C_41
REMARK   34  A    between atoms: C_41  and  C_42
REMARK   35  A    between atoms: C_43  and  C_44
REMARK   36  A    between atoms: C_43  and  C_56
REMARK   37  A    between atoms: C_44  and  C_45
REMARK   38  A    between atoms: C_45  and  C_46
REMARK   39  A    between atoms: C_46  and  C_47
REMARK   40  A    between atoms: C_47  and  C_48
REMARK   41  A    between atoms: C_48  and  O_50
REMARK   42  A    between atoms: O_50  and  C_51
REMARK   43  A    between atoms: C_52  and  C_53
REMARK   44  A    between atoms: C_54  and  C_55
REMARK   45  A    between atoms: C_55  and  C_56
REMARK   46  A    between atoms: C_59  and  C_60
REMARK   47  A    between atoms: C_60  and  C_61
REMARK   48  A    between atoms: C_61  and  C_62
REMARK   49  A    between atoms: C_62  and  C_63
REMARK   50  A    between atoms: C_64  and  C_68
REMARK   51  A    between atoms: C_65  and  C_66
REMARK   52  A    between atoms: C_66  and  O_76
REMARK   53  A    between atoms: C_68  and  O_77
REMARK   54  A    between atoms: N_70  and  C_71
REMARK   55  A    between atoms: N_70  and  C_73
REMARK   56  A    between atoms: C_71  and  O_72
REMARK   57  A    between atoms: C_73  and  C_74
REMARK   58  A    between atoms: C_74  and  O_75
REMARK                            x       y       z     vdW  Elec       q    Type
REMARK                         _______ _______ _______ _____ _____    ______ ____
ROOT
ATOM      1  N   UNL     1     -18.000  17.189   0.000  0.00  0.00    -0.292 NA
ATOM      2  H   UNL     1     -17.117  17.699   0.000  0.00  0.00    +0.124 HD
ENDROOT
BRANCH   1   3
ATOM      3  C   UNL     1     -18.000  15.689   0.000  0.00  0.00    +0.111 C 
BRANCH   3   4
ATOM      4  C   UNL     1     -19.299  14.939   0.000  0.00  0.00    +0.171 C 
BRANCH   4   5
ATOM      5  O   UNL     1     -19.299  13.439   0.000  0.00  0.00    -0.394 OA
ATOM      6  H   UNL     1     -20.139  12.954   0.000  0.00  0.00    +0.209 HD
ENDBRANCH   4   5
ENDBRANCH   3   4
ENDBRANCH   1   3
BRANCH   1   7
ATOM      7  C   UNL     1     -19.299  17.939   0.000  0.00  0.00    +0.240 C 
BRANCH   7   8
ATOM      8  O   UNL     1     -20.598  17.189   0.000  0.00  0.00    -0.380 OA
ATOM      9  H   UNL     1     -21.438  17.674   0.000  0.00  0.00    +0.211 HD
ENDBRANCH   7   8
ENDBRANCH   1   7
TORSDOF 5