REMARK  Name = 645617
REMARK  6 active torsions:
REMARK  status: ('A' for Active; 'I' for Inactive)
REMARK    1  A    between atoms: C_1  and  N_2
REMARK    2  A    between atoms: N_2  and  C_3
REMARK    3  A    between atoms: N_2  and  C_4
REMARK    4  A    between atoms: C_4  and  N_6
REMARK    5  A    between atoms: N_8  and  C_13
REMARK    6  A    between atoms: C_13  and  C_14
REMARK                            x       y       z     vdW  Elec       q    Type
REMARK                         _______ _______ _______ _____ _____    ______ ____
ROOT
ATOM      4  N   UNL     1       5.351  -1.490   0.000  0.00  0.00    -0.168 NA
ATOM      5  C   UNL     1       6.851  -1.490   0.000  0.00  0.00    +0.173 A 
ATOM      6  S   UNL     1       7.733  -0.277   0.000  0.00  0.00    -0.014 S 
ATOM      7  S   UNL     1       9.159  -0.740   0.000  0.00  0.00    -0.023 S 
ATOM      8  C   UNL     1       9.159  -2.240   0.000  0.00  0.00    +0.134 A 
ATOM      9  S   UNL     1      10.373  -3.122   0.000  0.00  0.00    -0.024 S 
ATOM     10  N   UNL     1       7.733  -2.704   0.000  0.00  0.00    -0.304 N 
ENDROOT
BRANCH   4   3
ATOM      3  C   UNL     1       4.601  -0.191   0.000  0.00  0.00    +0.158 C 
ATOM     18  S   UNL     1       5.351   1.108   0.000  0.00  0.00    -0.017 S 
BRANCH   3   2
ATOM      1  C   UNL     1       2.351   1.108   0.000  0.00  0.00    +0.130 C 
ATOM      2  N   UNL     1       3.101  -0.191   0.000  0.00  0.00    -0.317 N 
ATOM     19  C   UNL     1       2.351  -1.490   0.000  0.00  0.00    +0.130 C 
ENDBRANCH   3   2
ENDBRANCH   4   3
BRANCH  10  11
ATOM     11  C   UNL     1       7.269  -4.130   0.000  0.00  0.00    +0.180 C 
BRANCH  11  12
ATOM     12  C   UNL     1       8.273  -5.245   0.000  0.00  0.00    +0.061 A 
ATOM     13  C   UNL     1       7.809  -6.672   0.000  0.00  0.00    +0.025 A 
ATOM     14  C   UNL     1       8.813  -7.786   0.000  0.00  0.00    +0.003 A 
ATOM     15  C   UNL     1      10.280  -7.475   0.000  0.00  0.00    +0.020 A 
ATOM     16  C   UNL     1      10.744  -6.048   0.000  0.00  0.00    +0.111 A 
ATOM     17  N   UNL     1       9.740  -4.933   0.000  0.00  0.00    -0.258 NA
ENDBRANCH  11  12
ENDBRANCH  10  11
TORSDOF 4