REMARK  Name = 283849
REMARK  11 active torsions:
REMARK  status: ('A' for Active; 'I' for Inactive)
REMARK    1  A    between atoms: C_2  and  C_19
REMARK    2  A    between atoms: C_3  and  C_20
REMARK    3  A    between atoms: C_4  and  C_9
REMARK    4  A    between atoms: C_5  and  C_7
REMARK    5  A    between atoms: C_7  and  O_12
REMARK    6  A    between atoms: C_9  and  O_11
REMARK    7  A    between atoms: C_10  and  C_13
REMARK    8  A    between atoms: O_11  and  C_23
REMARK    9  A    between atoms: O_12  and  C_21
REMARK   10  A    between atoms: C_21  and  C_22
REMARK   11  A    between atoms: C_23  and  C_24
REMARK                            x       y       z     vdW  Elec       q    Type
REMARK                         _______ _______ _______ _____ _____    ______ ____
ROOT
ATOM      1  N   UNL     1      -4.405   6.861   0.000  0.00  0.00    -0.255 NA
ATOM      2  C   UNL     1      -3.655   5.562   0.000  0.00  0.00    +0.053 A 
ATOM      3  C   UNL     1      -4.405   4.263   0.000  0.00  0.00    +0.066 C 
ATOM      4  C   UNL     1      -2.155   5.562   0.000  0.00  0.00    +0.088 A 
ATOM     10  C   UNL     1      -1.405   6.861   0.000  0.00  0.00    +0.015 A 
ATOM     17  C   UNL     1      -2.155   8.160   0.000  0.00  0.00    +0.088 A 
ATOM     23  C   UNL     1      -3.655   8.160   0.000  0.00  0.00    +0.053 A 
ATOM     24  C   UNL     1      -4.405   9.459   0.000  0.00  0.00    +0.066 C 
ENDROOT
BRANCH  10  11
ATOM     11  C   UNL     1       0.095   6.861   0.000  0.00  0.00    +0.002 A 
ATOM     12  C   UNL     1       0.845   5.562   0.000  0.00  0.00    +0.119 A 
ATOM     13  N   UNL     1       2.345   5.562   0.000  0.00  0.00    -0.263 NA
ATOM     14  C   UNL     1       3.095   6.861   0.000  0.00  0.00    +0.111 A 
ATOM     15  C   UNL     1       2.345   8.160   0.000  0.00  0.00    +0.020 A 
ATOM     16  C   UNL     1       0.845   8.160   0.000  0.00  0.00    +0.011 A 
ENDBRANCH  10  11
BRANCH   4   5
ATOM      5  C   UNL     1      -1.405   4.263   0.000  0.00  0.00    +0.342 C 
ATOM      6  O   UNL     1       0.095   4.263   0.000  0.00  0.00    -0.245 OA
BRANCH   5   7
ATOM      7  O   UNL     1      -2.155   2.964   0.000  0.00  0.00    -0.461 OA
BRANCH   7   8
ATOM      8  C   UNL     1      -3.655   2.964   0.000  0.00  0.00    +0.229 C 
ATOM      9  C   UNL     1      -4.405   1.665   0.000  0.00  0.00    +0.048 C 
ENDBRANCH   7   8
ENDBRANCH   5   7
ENDBRANCH   4   5
BRANCH  17  18
ATOM     18  C   UNL     1      -1.405   9.459   0.000  0.00  0.00    +0.342 C 
ATOM     22  O   UNL     1      -2.155  10.758   0.000  0.00  0.00    -0.245 OA
BRANCH  18  19
ATOM     19  O   UNL     1       0.095   9.459   0.000  0.00  0.00    -0.461 OA
BRANCH  19  20
ATOM     20  C   UNL     1       0.845  10.758   0.000  0.00  0.00    +0.229 C 
ATOM     21  C   UNL     1       0.095  12.057   0.000  0.00  0.00    +0.048 C 
ENDBRANCH  19  20
ENDBRANCH  18  19
ENDBRANCH  17  18
TORSDOF 7