REMARK  Name = 281623
REMARK  7 active torsions:
REMARK  status: ('A' for Active; 'I' for Inactive)
REMARK    1  A    between atoms: O_1  and  C_2
REMARK    2  A    between atoms: O_1  and  C_19
REMARK    3  A    between atoms: C_7  and  C_8
REMARK    4  A    between atoms: C_12  and  C_13
REMARK    5  A    between atoms: C_18  and  N_22
REMARK    6  A    between atoms: C_19  and  C_20
REMARK    7  A    between atoms: C_20  and  C_21
REMARK                            x       y       z     vdW  Elec       q    Type
REMARK                         _______ _______ _______ _____ _____    ______ ____
ROOT
ATOM      9  C   UNL     1       7.272  -2.751   0.000  0.00  0.00    +0.109 A 
ATOM     10  S   UNL     1       7.272  -4.251   0.000  0.00  0.00    -0.075 S 
ATOM     11  C   UNL     1       8.699  -4.714   0.000  0.00  0.00    +0.075 A 
ATOM     12  C   UNL     1       9.580  -3.501   0.000  0.00  0.00    +0.079 A 
ATOM     22  N   UNL     1       8.699  -2.287   0.000  0.00  0.00    -0.239 NA
ENDROOT
BRANCH   9   8
ATOM      5  C   UNL     1       3.632  -0.106   0.000  0.00  0.00    +0.121 A 
ATOM      6  C   UNL     1       3.475  -1.597   0.000  0.00  0.00    +0.046 A 
ATOM      7  C   UNL     1       4.688  -2.479   0.000  0.00  0.00    +0.014 A 
ATOM      8  C   UNL     1       6.059  -1.869   0.000  0.00  0.00    +0.007 A 
ATOM     23  C   UNL     1       6.215  -0.377   0.000  0.00  0.00    +0.014 A 
ATOM     24  C   UNL     1       5.002   0.504   0.000  0.00  0.00    +0.046 A 
BRANCH   5   1
ATOM      1  O   UNL     1       2.418   0.776   0.000  0.00  0.00    -0.492 OA
BRANCH   1   2
ATOM      2  C   UNL     1       2.575   2.268   0.000  0.00  0.00    +0.229 C 
BRANCH   2   3
ATOM      3  C   UNL     1       3.945   2.878   0.000  0.00  0.00    +0.038 C 
ATOM      4  C   UNL     1       4.102   4.370   0.000  0.00  0.00    +0.007 C 
ENDBRANCH   2   3
ENDBRANCH   1   2
ENDBRANCH   5   1
ENDBRANCH   9   8
BRANCH  12  13
ATOM     13  C   UNL     1      11.080  -3.501   0.000  0.00  0.00    +0.001 A 
ATOM     14  C   UNL     1      11.830  -4.800   0.000  0.00  0.00    +0.016 A 
ATOM     15  C   UNL     1      13.330  -4.800   0.000  0.00  0.00    +0.085 A 
ATOM     16  C   UNL     1      14.080  -3.501   0.000  0.00  0.00    +0.273 A 
ATOM     20  C   UNL     1      13.330  -2.202   0.000  0.00  0.00    +0.085 A 
ATOM     21  C   UNL     1      11.830  -2.202   0.000  0.00  0.00    +0.016 A 
BRANCH  16  17
ATOM     17  N   UNL     1      15.580  -3.501   0.000  0.00  0.00    +0.080 N 
ATOM     18  O   UNL     1      16.330  -4.800   0.000  0.00  0.00    +0.041 OA
ATOM     19  O   UNL     1      16.330  -2.202   0.000  0.00  0.00    -0.576 OA
ENDBRANCH  16  17
ENDBRANCH  12  13
TORSDOF 6