REMARK  Name = 28011
REMARK  1 active torsions:
REMARK  status: ('A' for Active; 'I' for Inactive)
REMARK    1  A    between atoms: C_12  and  C_16
REMARK                            x       y       z     vdW  Elec       q    Type
REMARK                         _______ _______ _______ _____ _____    ______ ____
ROOT
ATOM      1  C   UNL     1      -4.343  -4.874   0.000  0.00  0.00    -0.013 C 
ATOM      2  C   UNL     1      -5.821  -4.613   0.000  0.00  0.00    +0.007 C 
ATOM      3  C   UNL     1      -3.044  -5.624   0.000  0.00  0.00    +0.023 C 
ATOM      4  C   UNL     1      -1.745  -4.874   0.000  0.00  0.00    +0.071 C 
ATOM      5  C   UNL     1      -1.745  -3.374   0.000  0.00  0.00    +0.071 C 
ATOM      6  C   UNL     1      -3.044  -2.624   0.000  0.00  0.00    +0.020 C 
ATOM      7  N   UNL     1      -0.446  -2.624   0.000  0.00  0.00    -0.311 NA
ATOM      8  H   UNL     1      -0.446  -1.124   0.000  0.00  0.00    +0.122 HD
ATOM      9  C   UNL     1       0.853  -3.374   0.000  0.00  0.00    +0.096 C 
ATOM     10  C   UNL     1       0.853  -4.874   0.000  0.00  0.00    +0.096 C 
ATOM     11  N   UNL     1      -0.446  -5.624   0.000  0.00  0.00    -0.311 NA
ATOM     12  H   UNL     1      -0.446  -7.124   0.000  0.00  0.00    +0.122 HD
ATOM     13  C   UNL     1      -4.343  -3.374   0.000  0.00  0.00    +0.005 C 
ENDROOT
TORSDOF 0