REMARK  Name = 26692
REMARK  6 active torsions:
REMARK  status: ('A' for Active; 'I' for Inactive)
REMARK    1  A    between atoms: C_5  and  C_8
REMARK    2  A    between atoms: C_6  and  O_18
REMARK    3  A    between atoms: C_9  and  C_10
REMARK    4  A    between atoms: C_16  and  O_20
REMARK    5  A    between atoms: O_18  and  C_19
REMARK    6  A    between atoms: O_20  and  C_21
REMARK                            x       y       z     vdW  Elec       q    Type
REMARK                         _______ _______ _______ _____ _____    ______ ____
ROOT
ATOM      1  O   UNL     1      -5.320  -1.898   0.000  0.00  0.00    -0.251 OA
ATOM      2  C   UNL     1      -5.163  -3.389   0.000  0.00  0.00    +0.324 C 
ATOM      3  N   UNL     1      -6.277  -4.393   0.000  0.00  0.00    -0.286 N 
ATOM      4  H   UNL     1      -7.240  -4.188   0.000  0.00  0.00    +0.151 HD
ATOM      5  C   UNL     1      -5.667  -5.763   0.000  0.00  0.00    +0.152 C 
ATOM     14  C   UNL     1      -4.176  -5.606   0.000  0.00  0.00    +0.067 C 
ATOM     23  N   UNL     1      -3.864  -4.139   0.000  0.00  0.00    -0.165 NA
ENDROOT
BRANCH   5   6
ATOM      6  C   UNL     1      -6.417  -7.062   0.000  0.00  0.00    -0.021 A 
ATOM      7  C   UNL     1      -7.917  -7.062   0.000  0.00  0.00    +0.009 A 
ATOM      8  C   UNL     1      -8.667  -8.361   0.000  0.00  0.00    +0.046 A 
ATOM      9  C   UNL     1      -7.917  -9.660   0.000  0.00  0.00    +0.120 A 
ATOM     12  C   UNL     1      -6.417  -9.660   0.000  0.00  0.00    +0.046 A 
ATOM     13  C   UNL     1      -5.667  -8.361   0.000  0.00  0.00    +0.009 A 
BRANCH   9  10
ATOM     10  O   UNL     1      -8.667 -10.959   0.000  0.00  0.00    -0.495 OA
ATOM     11  C   UNL     1     -10.167 -10.959   0.000  0.00  0.00    +0.277 C 
ENDBRANCH   9  10
ENDBRANCH   5   6
BRANCH  14  15
ATOM     15  C   UNL     1      -3.172  -6.721   0.000  0.00  0.00    -0.004 A 
ATOM     16  C   UNL     1      -3.635  -8.148   0.000  0.00  0.00    +0.013 A 
ATOM     17  C   UNL     1      -2.632  -9.262   0.000  0.00  0.00    +0.046 A 
ATOM     18  C   UNL     1      -1.165  -8.951   0.000  0.00  0.00    +0.120 A 
ATOM     21  C   UNL     1      -0.701  -7.524   0.000  0.00  0.00    +0.046 A 
ATOM     22  C   UNL     1      -1.705  -6.409   0.000  0.00  0.00    +0.013 A 
BRANCH  18  19
ATOM     19  O   UNL     1      -0.161 -10.065   0.000  0.00  0.00    -0.495 OA
ATOM     20  C   UNL     1       1.306  -9.754   0.000  0.00  0.00    +0.277 C 
ENDBRANCH  18  19
ENDBRANCH  14  15
TORSDOF 4