REMARK  Name = 278741
REMARK  4 active torsions:
REMARK  status: ('A' for Active; 'I' for Inactive)
REMARK    1  A    between atoms: C_4  and  C_12
REMARK    2  A    between atoms: C_5  and  C_13
REMARK    3  A    between atoms: C_10  and  C_12
REMARK    4  A    between atoms: O_11  and  C_12
REMARK                            x       y       z     vdW  Elec       q    Type
REMARK                         _______ _______ _______ _____ _____    ______ ____
ROOT
ATOM      1  C   UNL     1      -4.463   5.508   0.000  0.00  0.00    +0.095 A 
ATOM      2  N   UNL     1      -3.164   4.758   0.000  0.00  0.00    -0.284 N 
ATOM      3  C   UNL     1      -2.852   3.291   0.000  0.00  0.00    +0.166 A 
ATOM      8  N   UNL     1      -1.360   3.135   0.000  0.00  0.00    -0.131 NA
ATOM      9  N   UNL     1      -0.750   4.505   0.000  0.00  0.00    -0.129 NA
ATOM     10  C   UNL     1      -1.865   5.508   0.000  0.00  0.00    +0.161 A 
ATOM     11  C   UNL     1      -1.865   7.008   0.000  0.00  0.00    +0.052 A 
ATOM     12  C   UNL     1      -3.164   7.758   0.000  0.00  0.00    -0.046 A 
ATOM     13  C   UNL     1      -3.164   9.258   0.000  0.00  0.00    +0.044 C 
ATOM     14  C   UNL     1      -4.463   7.008   0.000  0.00  0.00    +0.021 A 
ENDROOT
BRANCH   3   4
ATOM      4  C   UNL     1      -3.856   2.177   0.000  0.00  0.00    +0.179 C 
ATOM      7  C   UNL     1      -3.392   0.750   0.000  0.00  0.00    +0.046 C 
BRANCH   4   5
ATOM      5  O   UNL     1      -5.323   2.488   0.000  0.00  0.00    -0.384 OA
ATOM      6  H   UNL     1      -5.623   3.411   0.000  0.00  0.00    +0.210 HD
ENDBRANCH   4   5
ENDBRANCH   3   4
TORSDOF 2