REMARK  Name = 272275
REMARK  2 active torsions:
REMARK  status: ('A' for Active; 'I' for Inactive)
REMARK    1  A    between atoms: C_7  and  C_12
REMARK    2  A    between atoms: C_8  and  C_11
REMARK                            x       y       z     vdW  Elec       q    Type
REMARK                         _______ _______ _______ _____ _____    ______ ____
ROOT
ATOM      1  C   UNL     1       3.123   4.500   0.000  0.00  0.00    +0.000 A 
ATOM      2  C   UNL     1       3.123   3.000   0.000  0.00  0.00    +0.001 A 
ATOM      3  C   UNL     1       4.422   2.250   0.000  0.00  0.00    +0.010 A 
ATOM      4  C   UNL     1       5.721   3.000   0.000  0.00  0.00    -0.001 A 
ATOM      5  C   UNL     1       7.021   2.250   0.000  0.00  0.00    +0.040 C 
ATOM      6  C   UNL     1       7.021   0.750   0.000  0.00  0.00    +0.066 C 
ATOM      7  N   UNL     1       8.319   3.000   0.000  0.00  0.00    -0.287 NA
ATOM      8  C   UNL     1       8.319   4.500   0.000  0.00  0.00    +0.149 C 
ATOM      9  C   UNL     1       7.021   5.250   0.000  0.00  0.00    +0.038 C 
ATOM     10  C   UNL     1       7.021   6.750   0.000  0.00  0.00    +0.014 C 
ATOM     11  C   UNL     1       5.721   4.500   0.000  0.00  0.00    -0.034 A 
ATOM     12  C   UNL     1       4.422   5.250   0.000  0.00  0.00    +0.004 A 
ENDROOT
TORSDOF 0