REMARK  Name = 28377
REMARK  8 active torsions:
REMARK  status: ('A' for Active; 'I' for Inactive)
REMARK    1  A    between atoms: N_2  and  C_9
REMARK    2  A    between atoms: N_3  and  C_11
REMARK    3  A    between atoms: C_5  and  N_10
REMARK    4  A    between atoms: C_6  and  N_12
REMARK    5  A    between atoms: N_12  and  C_13
REMARK    6  A    between atoms: C_13  and  N_15
REMARK    7  A    between atoms: N_15  and  C_16
REMARK    8  A    between atoms: C_16  and  C_17
REMARK                            x       y       z     vdW  Elec       q    Type
REMARK                         _______ _______ _______ _____ _____    ______ ____
ROOT
ATOM      1  O   UNL     1       0.750   2.250   0.000  0.00  0.00    -0.246 OA
ATOM      2  C   UNL     1       2.049   3.000   0.000  0.00  0.00    +0.333 A 
ATOM      3  N   UNL     1       3.348   2.250   0.000  0.00  0.00    -0.262 N 
ATOM      4  C   UNL     1       3.348   0.750   0.000  0.00  0.00    +0.157 C 
ATOM      5  C   UNL     1       4.647   3.000   0.000  0.00  0.00    +0.280 A 
ATOM      6  C   UNL     1       4.647   4.500   0.000  0.00  0.00    +0.136 A 
ATOM     16  C   UNL     1       3.348   5.250   0.000  0.00  0.00    +0.127 A 
ATOM     20  O   UNL     1       5.946   2.250   0.000  0.00  0.00    -0.265 OA
ATOM     21  N   UNL     1       2.049   4.500   0.000  0.00  0.00    -0.283 N 
ATOM     22  C   UNL     1       0.750   5.250   0.000  0.00  0.00    +0.155 C 
ENDROOT
BRANCH  16  17
ATOM     17  N   UNL     1       3.348   6.750   0.000  0.00  0.00    -0.343 N 
ATOM     18  H   UNL     1       2.495   7.242   0.000  0.00  0.00    +0.144 HD
ATOM     19  H   UNL     1       4.201   7.242   0.000  0.00  0.00    +0.144 HD
ENDBRANCH  16  17
BRANCH   6   7
ATOM      7  N   UNL     1       5.946   5.250   0.000  0.00  0.00    -0.290 N 
ATOM      8  H   UNL     1       5.946   6.234   0.000  0.00  0.00    +0.154 HD
BRANCH   7   9
ATOM      9  C   UNL     1       7.245   4.500   0.000  0.00  0.00    +0.135 C 
ATOM     15  S   UNL     1       8.544   5.250   0.000  0.00  0.00    -0.019 S 
BRANCH   9  10
ATOM     10  N   UNL     1       7.245   3.000   0.000  0.00  0.00    -0.323 N 
ATOM     11  H   UNL     1       6.393   2.508   0.000  0.00  0.00    +0.148 HD
BRANCH  10  12
ATOM     12  C   UNL     1       8.544   2.250   0.000  0.00  0.00    +0.130 C 
BRANCH  12  13
ATOM     13  C   UNL     1       9.843   3.000   0.000  0.00  0.00    -0.016 C 
ATOM     14  C   UNL     1       9.843   4.500   0.000  0.00  0.00    +0.005 C 
ENDBRANCH  12  13
ENDBRANCH  10  12
ENDBRANCH   9  10
ENDBRANCH   7   9
ENDBRANCH   6   7
TORSDOF 6