REMARK  Name = 275428
REMARK  6 active torsions:
REMARK  status: ('A' for Active; 'I' for Inactive)
REMARK    1  A    between atoms: N_7  and  C_24
REMARK    2  A    between atoms: C_10  and  C_17
REMARK    3  A    between atoms: C_11  and  C_23
REMARK    4  A    between atoms: C_17  and  N_18
REMARK    5  A    between atoms: N_18  and  C_21
REMARK    6  A    between atoms: N_18  and  C_22
REMARK                            x       y       z     vdW  Elec       q    Type
REMARK                         _______ _______ _______ _____ _____    ______ ____
ROOT
ATOM      1 CL   UNL     1      -0.962  -0.750   0.000  0.00  0.00    -0.145 Cl
ATOM      2  H   UNL     1       0.368  -0.750   0.000  0.00  0.00    +0.145 HD
ENDROOT
TORSDOF 0