REMARK  Name = 275971
REMARK  6 active torsions:
REMARK  status: ('A' for Active; 'I' for Inactive)
REMARK    1  A    between atoms: O_1  and  C_3
REMARK    2  A    between atoms: O_1  and  C_21
REMARK    3  A    between atoms: C_4  and  N_23
REMARK    4  A    between atoms: C_12  and  S_13
REMARK    5  A    between atoms: S_13  and  C_14
REMARK    6  A    between atoms: C_21  and  C_22
REMARK                            x       y       z     vdW  Elec       q    Type
REMARK                         _______ _______ _______ _____ _____    ______ ____
ROOT
ATOM      7  C   UNL     1       2.895   5.486   0.000  0.00  0.00    +0.038 A 
ATOM      8  C   UNL     1       4.194   4.736   0.000  0.00  0.00    +0.040 A 
ATOM      9  C   UNL     1       5.493   5.486   0.000  0.00  0.00    +0.042 A 
ATOM     10  S   UNL     1       6.920   5.023   0.000  0.00  0.00    -0.061 S 
ATOM     11  C   UNL     1       7.801   6.236   0.000  0.00  0.00    +0.140 A 
ATOM     20  N   UNL     1       6.920   7.450   0.000  0.00  0.00    -0.232 NA
ATOM     21  C   UNL     1       5.493   6.986   0.000  0.00  0.00    +0.080 A 
ATOM     22  C   UNL     1       4.194   7.736   0.000  0.00  0.00    +0.031 A 
ATOM     23  C   UNL     1       2.895   6.986   0.000  0.00  0.00    +0.025 A 
ENDROOT
BRANCH   7   5
ATOM      4  C   UNL     1       0.297   5.486   0.000  0.00  0.00    +0.405 C 
ATOM      5  N   UNL     1       1.596   4.736   0.000  0.00  0.00    -0.251 N 
ATOM      6  H   UNL     1       1.596   3.752   0.000  0.00  0.00    +0.158 HD
ATOM     24  O   UNL     1       0.297   6.986   0.000  0.00  0.00    -0.226 OA
BRANCH   4   1
ATOM      1  O   UNL     1      -1.002   4.736   0.000  0.00  0.00    -0.450 OA
BRANCH   1   2
ATOM      2  C   UNL     1      -2.301   5.486   0.000  0.00  0.00    +0.230 C 
ATOM      3  C   UNL     1      -2.301   6.986   0.000  0.00  0.00    +0.048 C 
ENDBRANCH   1   2
ENDBRANCH   4   1
ENDBRANCH   7   5
BRANCH  11  12
ATOM     12  S   UNL     1       9.301   6.236   0.000  0.00  0.00    -0.063 S 
BRANCH  12  13
ATOM     13  C   UNL     1      10.051   7.535   0.000  0.00  0.00    +0.015 A 
ATOM     14  C   UNL     1      11.551   7.535   0.000  0.00  0.00    +0.016 A 
ATOM     15  C   UNL     1      12.301   8.834   0.000  0.00  0.00    +0.021 A 
ATOM     16  C   UNL     1      11.551  10.133   0.000  0.00  0.00    +0.041 A 
ATOM     17 CL   UNL     1      12.301  11.432   0.000  0.00  0.00    -0.084 Cl
ATOM     18  C   UNL     1      10.051  10.133   0.000  0.00  0.00    +0.021 A 
ATOM     19  C   UNL     1       9.301   8.834   0.000  0.00  0.00    +0.016 A 
ENDBRANCH  12  13
ENDBRANCH  11  12
TORSDOF 5