REMARK  Name = 284701
REMARK  3 active torsions:
REMARK  status: ('A' for Active; 'I' for Inactive)
REMARK    1  A    between atoms: C_2  and  C_9
REMARK    2  A    between atoms: C_5  and  C_10
REMARK    3  A    between atoms: C_5  and  C_11
REMARK                            x       y       z     vdW  Elec       q    Type
REMARK                         _______ _______ _______ _____ _____    ______ ____
ROOT
ATOM      1  C   UNL     1       2.640  -3.457   0.000  0.00  0.00    +0.065 C 
ATOM      2  C   UNL     1       2.177  -4.883   0.000  0.00  0.00    +0.165 C 
ATOM      3  C   UNL     1       0.750  -5.347   0.000  0.00  0.00    +0.055 C 
ATOM      4  N   UNL     1       3.390  -5.765   0.000  0.00  0.00    -0.218 N 
ATOM      5  C   UNL     1       3.854  -7.191   0.000  0.00  0.00    +0.275 C 
ATOM      6  C   UNL     1       5.354  -7.191   0.000  0.00  0.00    +0.333 C 
ATOM      7  N   UNL     1       5.817  -5.765   0.000  0.00  0.00    -0.083 NA
ATOM      8  C   UNL     1       4.604  -4.883   0.000  0.00  0.00    +0.289 C 
ATOM      9  C   UNL     1       4.140  -3.457   0.000  0.00  0.00    +0.071 C 
ATOM     10  C   UNL     1       5.607  -3.145   0.000  0.00  0.00    +0.023 C 
ATOM     11  C   UNL     1       3.983  -1.965   0.000  0.00  0.00    +0.023 C 
ENDROOT
TORSDOF 0