REMARK  Name = 28080
REMARK  7 active torsions:
REMARK  status: ('A' for Active; 'I' for Inactive)
REMARK    1  A    between atoms: C_2  and  C_18
REMARK    2  A    between atoms: C_2  and  C_22
REMARK    3  A    between atoms: C_14  and  O_16
REMARK    4  A    between atoms: O_16  and  C_17
REMARK    5  A    between atoms: C_18  and  O_20
REMARK    6  A    between atoms: O_20  and  C_21
REMARK    7  A    between atoms: C_22  and  C_23
REMARK                            x       y       z     vdW  Elec       q    Type
REMARK                         _______ _______ _______ _____ _____    ______ ____
ROOT
ATOM      1  O   UNL     1       0.286  -7.112   0.000  0.00  0.00    -0.291 OA
ATOM      2  C   UNL     1      -1.013  -6.362   0.000  0.00  0.00    +0.180 C 
ATOM      3  C   UNL     1      -2.312  -7.112   0.000  0.00  0.00    +0.026 A 
ATOM      4  C   UNL     1      -2.312  -8.612   0.000  0.00  0.00    +0.058 A 
ATOM      5  C   UNL     1      -3.611  -9.362   0.000  0.00  0.00    +0.128 A 
ATOM      8  C   UNL     1      -4.910  -8.612   0.000  0.00  0.00    +0.024 A 
ATOM      9  C   UNL     1      -6.209  -9.362   0.000  0.00  0.00    +0.012 A 
ATOM     10  C   UNL     1      -7.508  -8.612   0.000  0.00  0.00    +0.001 A 
ATOM     11  C   UNL     1      -7.508  -7.112   0.000  0.00  0.00    +0.001 A 
ATOM     12  C   UNL     1      -6.209  -6.362   0.000  0.00  0.00    +0.009 A 
ATOM     13  C   UNL     1      -4.910  -7.112   0.000  0.00  0.00    -0.011 A 
ATOM     14  C   UNL     1      -3.611  -6.362   0.000  0.00  0.00    -0.029 A 
ATOM     15  C   UNL     1      -3.611  -4.862   0.000  0.00  0.00    +0.038 C 
ATOM     16  C   UNL     1      -2.312  -4.112   0.000  0.00  0.00    +0.031 C 
ATOM     17  C   UNL     1      -1.013  -4.862   0.000  0.00  0.00    +0.130 C 
ENDROOT
BRANCH   5   6
ATOM      6  O   UNL     1      -3.611 -10.862   0.000  0.00  0.00    -0.494 OA
ATOM      7  C   UNL     1      -4.910 -11.612   0.000  0.00  0.00    +0.277 C 
ENDBRANCH   5   6
BRANCH  17  18
ATOM     18  C   UNL     1       0.464  -5.123   0.000  0.00  0.00    +0.023 C 
ATOM     19  C   UNL     1       0.977  -6.532   0.000  0.00  0.00    +0.005 C 
ENDBRANCH  17  18
BRANCH  17  20
ATOM     20  C   UNL     1      -0.500  -3.453   0.000  0.00  0.00    +0.321 C 
ATOM     23  O   UNL     1       0.977  -3.192   0.000  0.00  0.00    -0.250 OA
BRANCH  20  21
ATOM     21  O   UNL     1      -1.464  -2.304   0.000  0.00  0.00    -0.467 OA
ATOM     22  C   UNL     1      -2.942  -2.564   0.000  0.00  0.00    +0.280 C 
ENDBRANCH  20  21
ENDBRANCH  17  20
TORSDOF 4