REMARK  Name = 270916
REMARK  4 active torsions:
REMARK  status: ('A' for Active; 'I' for Inactive)
REMARK    1  A    between atoms: C_8  and  C_24
REMARK    2  A    between atoms: C_17  and  C_25
REMARK    3  A    between atoms: C_18  and  C_21
REMARK    4  A    between atoms: C_18  and  O_26
REMARK                            x       y       z     vdW  Elec       q    Type
REMARK                         _______ _______ _______ _____ _____    ______ ____
ROOT
ATOM      1  C   UNL     1      -8.684  -7.900   0.000  0.00  0.00    +0.160 A 
ATOM      2  N   UNL     1      -9.566  -9.114   0.000  0.00  0.00    -0.086 NA
ATOM      3  O   UNL     1      -8.684 -10.327   0.000  0.00  0.00    -0.355 OA
ATOM      4  C   UNL     1      -7.258  -9.864   0.000  0.00  0.00    +0.163 A 
ATOM      5  C   UNL     1      -5.959 -10.614   0.000  0.00  0.00    +0.049 C 
ATOM      6  C   UNL     1      -4.660  -9.864   0.000  0.00  0.00    -0.059 C 
ATOM      7  C   UNL     1      -3.361 -10.614   0.000  0.00  0.00    +0.032 C 
ATOM      8  C   UNL     1      -2.062  -9.864   0.000  0.00  0.00    +0.008 C 
ATOM      9  C   UNL     1      -2.062  -8.364   0.000  0.00  0.00    -0.003 C 
ATOM     10  C   UNL     1      -0.762  -7.614   0.000  0.00  0.00    +0.002 C 
ATOM     11  C   UNL     1       0.664  -8.077   0.000  0.00  0.00    +0.008 C 
ATOM     12  C   UNL     1       1.546  -6.864   0.000  0.00  0.00    +0.049 C 
ATOM     13  C   UNL     1       0.664  -5.650   0.000  0.00  0.00    +0.132 C 
ATOM     18  C   UNL     1      -0.762  -6.114   0.000  0.00  0.00    +0.011 C 
ATOM     19  C   UNL     1      -0.606  -4.622   0.000  0.00  0.00    +0.015 C 
ATOM     20  C   UNL     1      -2.062  -5.364   0.000  0.00  0.00    +0.011 C 
ATOM     21  C   UNL     1      -3.361  -6.114   0.000  0.00  0.00    +0.005 C 
ATOM     22  C   UNL     1      -3.361  -7.614   0.000  0.00  0.00    +0.003 C 
ATOM     23  C   UNL     1      -4.660  -8.364   0.000  0.00  0.00    -0.003 C 
ATOM     24  C   UNL     1      -4.660  -6.864   0.000  0.00  0.00    +0.016 C 
ATOM     25  C   UNL     1      -5.959  -7.614   0.000  0.00  0.00    +0.051 C 
ATOM     26  C   UNL     1      -7.258  -8.364   0.000  0.00  0.00    +0.019 A 
ENDROOT
BRANCH  13  14
ATOM     14  O   UNL     1       1.963  -4.900   0.000  0.00  0.00    -0.376 OA
ATOM     15  H   UNL     1       2.803  -5.385   0.000  0.00  0.00    +0.211 HD
ENDBRANCH  13  14
BRANCH  13  16
ATOM     16  C   UNL     1       0.301  -4.195   0.000  0.00  0.00    -0.070 C 
ATOM     17  C   UNL     1      -0.062  -2.739   0.000  0.00  0.00    +0.007 C 
ENDBRANCH  13  16
TORSDOF 2