REMARK  Name = 277806
REMARK  3 active torsions:
REMARK  status: ('A' for Active; 'I' for Inactive)
REMARK    1  A    between atoms: O_2  and  C_4
REMARK    2  A    between atoms: O_2  and  C_15
REMARK    3  A    between atoms: C_8  and  N_17
REMARK                            x       y       z     vdW  Elec       q    Type
REMARK                         _______ _______ _______ _____ _____    ______ ____
ROOT
ATOM     10  C   UNL     1      -0.375  -6.649   0.000  0.00  0.00    +0.410 C 
ATOM     11  N   UNL     1       0.924  -5.899   0.000  0.00  0.00    -0.251 N 
ATOM     12  H   UNL     1       1.777  -6.392   0.000  0.00  0.00    +0.158 HD
ATOM     19  O   UNL     1      -1.674  -5.899   0.000  0.00  0.00    -0.226 OA
ENDROOT
BRANCH  11  13
ATOM     13  C   UNL     1       0.924  -4.399   0.000  0.00  0.00    +0.036 A 
ATOM     14  C   UNL     1       2.223  -3.650   0.000  0.00  0.00    +0.023 A 
ATOM     15  C   UNL     1       2.223  -2.150   0.000  0.00  0.00    +0.002 A 
ATOM     16  C   UNL     1       0.924  -1.400   0.000  0.00  0.00    +0.000 A 
ATOM     17  C   UNL     1      -0.375  -2.150   0.000  0.00  0.00    +0.002 A 
ATOM     18  C   UNL     1      -0.375  -3.650   0.000  0.00  0.00    +0.023 A 
ENDBRANCH  11  13
BRANCH  10   9
ATOM      9  O   UNL     1      -0.375  -8.149   0.000  0.00  0.00    -0.406 OA
BRANCH   9   8
ATOM      1  O   UNL     1      -2.973  -6.649   0.000  0.00  0.00    -0.264 OA
ATOM      2  C   UNL     1      -2.973  -8.149   0.000  0.00  0.00    +0.291 A 
ATOM      3  N   UNL     1      -4.272  -8.899   0.000  0.00  0.00    -0.326 N 
ATOM      4  H   UNL     1      -5.125  -8.407   0.000  0.00  0.00    +0.168 HD
ATOM      5  C   UNL     1      -4.272 -10.400   0.000  0.00  0.00    +0.086 A 
ATOM      6  C   UNL     1      -2.973 -11.150   0.000  0.00  0.00    +0.021 A 
ATOM      7  C   UNL     1      -1.674 -10.400   0.000  0.00  0.00    +0.053 A 
ATOM      8  C   UNL     1      -1.674  -8.899   0.000  0.00  0.00    +0.197 A 
ENDBRANCH   9   8
ENDBRANCH  10   9
TORSDOF 3