REMARK  Name = 27628
REMARK  5 active torsions:
REMARK  status: ('A' for Active; 'I' for Inactive)
REMARK    1  A    between atoms: C_8  and  S_11
REMARK    2  A    between atoms: S_11  and  C_12
REMARK    3  A    between atoms: C_12  and  C_13
REMARK    4  A    between atoms: C_13  and  C_14
REMARK    5  A    between atoms: C_14  and  C_15
REMARK                            x       y       z     vdW  Elec       q    Type
REMARK                         _______ _______ _______ _____ _____    ______ ____
ROOT
ATOM      1  N   UNL     1      -4.459  -4.941   0.000  0.00  0.00    -0.228 NA
ATOM      2  C   UNL     1      -4.459  -3.441   0.000  0.00  0.00    +0.224 A 
ATOM      3  N   UNL     1      -3.160  -2.691   0.000  0.00  0.00    -0.216 NA
ATOM      4  C   UNL     1      -1.861  -3.441   0.000  0.00  0.00    +0.160 A 
ATOM      5  C   UNL     1      -1.861  -4.941   0.000  0.00  0.00    +0.070 A 
ATOM      6  C   UNL     1      -0.434  -5.404   0.000  0.00  0.00    +0.147 A 
ATOM      7  N   UNL     1       0.447  -4.191   0.000  0.00  0.00    -0.180 NA
ATOM      8  N   UNL     1      -0.434  -2.977   0.000  0.00  0.00    -0.260 N 
ATOM      9  H   UNL     1       0.029  -1.550   0.000  0.00  0.00    +0.191 HD
ATOM     10  C   UNL     1      -3.160  -5.691   0.000  0.00  0.00    +0.111 A 
ENDROOT
BRANCH  10  11
ATOM     11  S   UNL     1      -3.160  -7.191   0.000  0.00  0.00    -0.105 S 
BRANCH  11  12
ATOM     12  C   UNL     1      -4.459  -7.941   0.000  0.00  0.00    +0.076 C 
BRANCH  12  13
ATOM     13  C   UNL     1      -5.758  -7.191   0.000  0.00  0.00    +0.011 C 
BRANCH  13  14
ATOM     14  C   UNL     1      -7.057  -7.941   0.000  0.00  0.00    -0.003 C 
ATOM     15  C   UNL     1      -8.356  -7.191   0.000  0.00  0.00    +0.004 C 
ENDBRANCH  13  14
ENDBRANCH  12  13
ENDBRANCH  11  12
ENDBRANCH  10  11
TORSDOF 4