REMARK  Name = 27305
REMARK  5 active torsions:
REMARK  status: ('A' for Active; 'I' for Inactive)
REMARK    1  A    between atoms: N_9  and  C_15
REMARK    2  A    between atoms: C_18  and  C_21
REMARK    3  A    between atoms: C_19  and  C_22
REMARK    4  A    between atoms: C_19  and  C_23
REMARK    5  A    between atoms: O_20  and  C_21
REMARK                            x       y       z     vdW  Elec       q    Type
REMARK                         _______ _______ _______ _____ _____    ______ ____
ROOT
ATOM      6  C   UNL     1      -7.267  -0.469   0.000  0.00  0.00    +0.254 C 
ATOM      7  C   UNL     1      -5.840  -0.933   0.000  0.00  0.00    +0.202 C 
ATOM      8  C   UNL     1      -5.840  -2.433   0.000  0.00  0.00    +0.186 C 
ATOM      9  C   UNL     1      -7.267  -2.897   0.000  0.00  0.00    +0.178 C 
ATOM     13  O   UNL     1      -4.414  -2.897   0.000  0.00  0.00    -0.341 OA
ATOM     14  C   UNL     1      -3.532  -1.683   0.000  0.00  0.00    +0.166 C 
ATOM     15  C   UNL     1      -2.417  -0.679   0.000  0.00  0.00    +0.074 C 
ATOM     16  C   UNL     1      -2.417  -2.687   0.000  0.00  0.00    +0.074 C 
ATOM     17  O   UNL     1      -4.414  -0.469   0.000  0.00  0.00    -0.339 OA
ATOM     18  O   UNL     1      -8.148  -1.683   0.000  0.00  0.00    -0.346 OA
ENDROOT
BRANCH   6   5
ATOM      1  N   UNL     1     -11.755   2.921   0.000  0.00  0.00    -0.228 NA
ATOM      2  C   UNL     1     -10.456   3.671   0.000  0.00  0.00    +0.138 A 
ATOM      3  C   UNL     1      -9.157   2.921   0.000  0.00  0.00    +0.139 A 
ATOM      4  C   UNL     1      -9.157   1.421   0.000  0.00  0.00    +0.144 A 
ATOM      5  N   UNL     1      -7.730   0.957   0.000  0.00  0.00    -0.287 N 
ATOM     19  C   UNL     1      -6.849   2.171   0.000  0.00  0.00    +0.203 A 
ATOM     20  N   UNL     1     -10.456   0.671   0.000  0.00  0.00    -0.330 N 
ATOM     21  H   UNL     1     -10.456  -0.829   0.000  0.00  0.00    +0.168 HD
ATOM     22  N   UNL     1      -7.730   3.384   0.000  0.00  0.00    -0.231 NA
ATOM     23  S   UNL     1     -10.456   5.171   0.000  0.00  0.00    -0.028 S 
ATOM     24  C   UNL     1     -11.755   1.421   0.000  0.00  0.00    +0.199 A 
ENDBRANCH   6   5
BRANCH   9  10
ATOM     10  C   UNL     1      -7.730  -4.323   0.000  0.00  0.00    +0.190 C 
BRANCH  10  11
ATOM     11  O   UNL     1      -6.726  -5.438   0.000  0.00  0.00    -0.392 OA
ATOM     12  H   UNL     1      -7.026  -6.360   0.000  0.00  0.00    +0.210 HD
ENDBRANCH  10  11
ENDBRANCH   9  10
TORSDOF 3