REMARK  Name = 26980
REMARK  7 active torsions:
REMARK  status: ('A' for Active; 'I' for Inactive)
REMARK    1  A    between atoms: C_1  and  C_25
REMARK    2  A    between atoms: C_2  and  N_26
REMARK    3  A    between atoms: C_7  and  C_15
REMARK    4  A    between atoms: C_8  and  O_21
REMARK    5  A    between atoms: C_15  and  O_16
REMARK    6  A    between atoms: O_16  and  C_17
REMARK    7  A    between atoms: O_21  and  C_22
REMARK                            x       y       z     vdW  Elec       q    Type
REMARK                         _______ _______ _______ _____ _____    ______ ____
ROOT
ATOM      1  C   UNL     1       0.021  10.248   0.000  0.00  0.00    +0.022 C 
ATOM      2  C   UNL     1      -1.278  10.998   0.000  0.00  0.00    +0.050 C 
ATOM      3  C   UNL     1       1.321  10.998   0.000  0.00  0.00    +0.205 C 
ATOM      4  O   UNL     1       1.321  12.498   0.000  0.00  0.00    -0.286 OA
ATOM      5  C   UNL     1       2.619  10.248   0.000  0.00  0.00    +0.087 C 
ATOM      6  N   UNL     1       4.046  10.712   0.000  0.00  0.00    -0.295 N 
ATOM      7  C   UNL     1       4.928  11.925   0.000  0.00  0.00    +0.128 C 
ATOM      8  C   UNL     1       6.354  11.462   0.000  0.00  0.00    +0.093 C 
ATOM      9  N   UNL     1       7.653  10.712   0.000  0.00  0.00    -0.302 NA
ATOM     10  H   UNL     1       8.673  10.712   0.000  0.00  0.00    +0.123 HD
ATOM     11  C   UNL     1       6.354   9.962   0.000  0.00  0.00    +0.124 C 
ATOM     12  C   UNL     1       4.928   9.498   0.000  0.00  0.00    +0.163 C 
ATOM     15  C   UNL     1       4.046   8.285   0.000  0.00  0.00    +0.114 C 
ATOM     23  C   UNL     1       2.619   8.748   0.000  0.00  0.00    +0.037 C 
ATOM     24  C   UNL     1       1.321   7.998   0.000  0.00  0.00    +0.205 C 
ATOM     25  O   UNL     1       1.321   6.498   0.000  0.00  0.00    -0.286 OA
ATOM     26  C   UNL     1       0.021   8.748   0.000  0.00  0.00    +0.079 C 
ENDROOT
BRANCH  26  27
ATOM     27  N   UNL     1      -1.278   7.998   0.000  0.00  0.00    -0.355 N 
ATOM     28  H   UNL     1      -1.278   7.014   0.000  0.00  0.00    +0.142 HD
ATOM     29  H   UNL     1      -2.130   8.490   0.000  0.00  0.00    +0.142 HD
ENDBRANCH  26  27
BRANCH  12  13
ATOM     13  O   UNL     1       6.383   7.496   0.000  0.00  0.00    -0.357 OA
ATOM     14  C   UNL     1       7.874   7.653   0.000  0.00  0.00    +0.196 C 
ENDBRANCH  12  13
BRANCH  15  16
ATOM     16  C   UNL     1       4.510   6.858   0.000  0.00  0.00    +0.246 C 
BRANCH  16  17
ATOM     17  O   UNL     1       3.506   5.743   0.000  0.00  0.00    -0.450 OA
BRANCH  17  18
ATOM     18  C   UNL     1       3.969   4.317   0.000  0.00  0.00    +0.398 C 
ATOM     19  N   UNL     1       2.966   3.202   0.000  0.00  0.00    -0.295 N 
ATOM     20  H   UNL     1       3.270   2.266   0.000  0.00  0.00    +0.148 HD
ATOM     21  H   UNL     1       2.003   3.407   0.000  0.00  0.00    +0.148 HD
ATOM     22  O   UNL     1       5.437   4.005   0.000  0.00  0.00    -0.227 OA
ENDBRANCH  17  18
ENDBRANCH  16  17
ENDBRANCH  15  16
TORSDOF 5