REMARK  Name = 265372
REMARK  10 active torsions:
REMARK  status: ('A' for Active; 'I' for Inactive)
REMARK    1  A    between atoms: C_2  and  C_3
REMARK    2  A    between atoms: C_8  and  N_12
REMARK    3  A    between atoms: C_9  and  C_13
REMARK    4  A    between atoms: N_10  and  C_15
REMARK    5  A    between atoms: N_10  and  C_16
REMARK    6  A    between atoms: N_10  and  C_18
REMARK    7  A    between atoms: N_12  and  C_14
REMARK    8  A    between atoms: C_14  and  C_15
REMARK    9  A    between atoms: C_16  and  C_17
REMARK   10  A    between atoms: C_18  and  C_19
REMARK                            x       y       z     vdW  Elec       q    Type
REMARK                         _______ _______ _______ _____ _____    ______ ____
ROOT
ATOM      3  C   UNL     1       4.030   4.500   0.000  0.00  0.00    +0.230 A 
ATOM      4  C   UNL     1       4.030   3.000   0.000  0.00  0.00    +0.318 A 
ATOM      5  N   UNL     1       2.731   2.250   0.000  0.00  0.00    -0.302 N 
ATOM      6  H   UNL     1       2.731   1.266   0.000  0.00  0.00    +0.148 HD
ATOM      7  H   UNL     1       1.879   2.742   0.000  0.00  0.00    +0.148 HD
ATOM      8  N   UNL     1       5.329   2.250   0.000  0.00  0.00    -0.134 N 
ATOM      9  O   UNL     1       5.329   0.750   0.000  0.00  0.00    -0.617 OA
ATOM     10  C   UNL     1       6.628   3.000   0.000  0.00  0.00    +0.305 A 
ATOM     20  C   UNL     1       6.628   4.500   0.000  0.00  0.00    +0.128 A 
ATOM     21  C   UNL     1       7.928   5.250   0.000  0.00  0.00    +0.074 C 
ATOM     22  N   UNL     1       5.329   5.250   0.000  0.00  0.00    -0.226 NA
ENDROOT
BRANCH   3   2
ATOM      1  N   UNL     1       1.432   6.000   0.000  0.00  0.00    -0.189 NA
ATOM      2  C   UNL     1       2.731   5.250   0.000  0.00  0.00    +0.127 C 
ENDBRANCH   3   2
BRANCH  10  11
ATOM     11  N   UNL     1       7.928   2.250   0.000  0.00  0.00    -0.288 N 
ATOM     12  H   UNL     1       8.013   1.269   0.000  0.00  0.00    +0.152 HD
BRANCH  11  13
ATOM     13  C   UNL     1       9.076   3.214   0.000  0.00  0.00    +0.122 C 
BRANCH  13  14
ATOM     14  C   UNL     1      10.486   2.701   0.000  0.00  0.00    +0.103 C 
BRANCH  14  15
ATOM     15  N   UNL     1      10.486   1.201   0.000  0.00  0.00    -0.301 NA
BRANCH  15  16
ATOM     16  C   UNL     1      11.785   0.451   0.000  0.00  0.00    +0.081 C 
ATOM     17  C   UNL     1      13.084   1.201   0.000  0.00  0.00    +0.020 C 
ENDBRANCH  15  16
BRANCH  15  18
ATOM     18  C   UNL     1       9.187   0.451   0.000  0.00  0.00    +0.081 C 
ATOM     19  C   UNL     1       9.187  -1.049   0.000  0.00  0.00    +0.020 C 
ENDBRANCH  15  18
ENDBRANCH  14  15
ENDBRANCH  13  14
ENDBRANCH  11  13
ENDBRANCH  10  11
TORSDOF 7