REMARK  Name = 281816
REMARK  8 active torsions:
REMARK  status: ('A' for Active; 'I' for Inactive)
REMARK    1  A    between atoms: N_2  and  C_15
REMARK    2  A    between atoms: N_3  and  C_28
REMARK    3  A    between atoms: C_5  and  C_29
REMARK    4  A    between atoms: C_6  and  C_32
REMARK    5  A    between atoms: C_20  and  S_26
REMARK    6  A    between atoms: S_26  and  C_27
REMARK    7  A    between atoms: C_29  and  O_31
REMARK    8  A    between atoms: C_32  and  O_34
REMARK                            x       y       z     vdW  Elec       q    Type
REMARK                         _______ _______ _______ _____ _____    ______ ____
ROOT
ATOM      1  C   UNL     1     -12.292 -11.021   0.000  0.00  0.00    +0.098 C 
ATOM      6  C   UNL     1     -13.788 -10.909   0.000  0.00  0.00    +0.098 C 
ENDROOT
BRANCH   1   2
ATOM      2  C   UNL     1     -11.641 -12.373   0.000  0.00  0.00    +0.330 C 
ATOM      5  O   UNL     1     -10.145 -12.485   0.000  0.00  0.00    -0.246 OA
BRANCH   2   3
ATOM      3  O   UNL     1     -12.486 -13.612   0.000  0.00  0.00    -0.478 OA
ATOM      4  H   UNL     1     -13.420 -13.542   0.000  0.00  0.00    +0.295 HD
ENDBRANCH   2   3
ENDBRANCH   1   2
BRANCH   6   7
ATOM      7  C   UNL     1     -14.633 -12.149   0.000  0.00  0.00    +0.330 C 
ATOM     10  O   UNL     1     -16.128 -12.037   0.000  0.00  0.00    -0.246 OA
BRANCH   7   8
ATOM      8  O   UNL     1     -13.982 -13.500   0.000  0.00  0.00    -0.478 OA
ATOM      9  H   UNL     1     -14.510 -14.274   0.000  0.00  0.00    +0.295 HD
ENDBRANCH   7   8
ENDBRANCH   6   7
TORSDOF 4