REMARK  Name = 279834
REMARK  6 active torsions:
REMARK  status: ('A' for Active; 'I' for Inactive)
REMARK    1  A    between atoms: C_1  and  C_8
REMARK    2  A    between atoms: C_2  and  C_10
REMARK    3  A    between atoms: C_3  and  C_11
REMARK    4  A    between atoms: C_3  and  C_12
REMARK    5  A    between atoms: C_6  and  C_15
REMARK    6  A    between atoms: C_7  and  C_13
REMARK                            x       y       z     vdW  Elec       q    Type
REMARK                         _______ _______ _______ _____ _____    ______ ____
ROOT
ATOM      1  C   UNL     1       3.348   4.500   0.000  0.00  0.00    +0.057 C 
ATOM      4  C   UNL     1       3.348   3.000   0.000  0.00  0.00    +0.019 C 
ATOM      5  C   UNL     1       2.049   2.250   0.000  0.00  0.00    +0.061 C 
ATOM      6  N   UNL     1       4.647   2.250   0.000  0.00  0.00    -0.320 N 
ATOM      7  H   UNL     1       4.647   0.750   0.000  0.00  0.00    +0.152 HD
ATOM      8  C   UNL     1       5.946   3.000   0.000  0.00  0.00    +0.019 C 
ATOM      9  C   UNL     1       7.245   2.250   0.000  0.00  0.00    +0.061 C 
ATOM     10  C   UNL     1       5.946   4.500   0.000  0.00  0.00    +0.057 C 
ATOM     13  C   UNL     1       4.647   5.250   0.000  0.00  0.00    +0.037 C 
ATOM     14  C   UNL     1       5.611   6.399   0.000  0.00  0.00    +0.022 C 
ATOM     15  C   UNL     1       3.683   6.399   0.000  0.00  0.00    +0.022 C 
ENDROOT
BRANCH   1   2
ATOM      2  C   UNL     1       2.049   5.250   0.000  0.00  0.00    +0.097 C 
ATOM      3  N   UNL     1       0.750   6.000   0.000  0.00  0.00    -0.191 NA
ENDBRANCH   1   2
BRANCH  10  11
ATOM     11  C   UNL     1       7.245   5.250   0.000  0.00  0.00    +0.097 C 
ATOM     12  N   UNL     1       8.544   6.000   0.000  0.00  0.00    -0.191 NA
ENDBRANCH  10  11
TORSDOF 2