REMARK  Name = 329279
REMARK  2 active torsions:
REMARK  status: ('A' for Active; 'I' for Inactive)
REMARK    1  A    between atoms: C_4  and  C_21
REMARK    2  A    between atoms: N_6  and  N_7
REMARK                            x       y       z     vdW  Elec       q    Type
REMARK                         _______ _______ _______ _____ _____    ______ ____
ROOT
ATOM      7  N   UNL     1      -6.854   4.632   0.000  0.00  0.00    -0.144 NA
ATOM      8  C   UNL     1      -5.640   3.750   0.000  0.00  0.00    +0.157 C 
ATOM      9  C   UNL     1      -4.213   4.214   0.000  0.00  0.00    +0.031 A 
ATOM     10  C   UNL     1      -3.603   5.584   0.000  0.00  0.00    +0.032 A 
ATOM     11  C   UNL     1      -2.112   5.741   0.000  0.00  0.00    +0.043 A 
ATOM     12 CL   UNL     1      -1.502   7.111   0.000  0.00  0.00    -0.083 Cl
ATOM     13  C   UNL     1      -1.230   4.527   0.000  0.00  0.00    +0.042 A 
ATOM     14  C   UNL     1      -1.840   3.157   0.000  0.00  0.00    +0.064 A 
ATOM     15 CL   UNL     1      -0.958   1.943   0.000  0.00  0.00    -0.082 Cl
ATOM     16  C   UNL     1      -3.332   3.000   0.000  0.00  0.00    +0.062 A 
ATOM     17  N   UNL     1      -4.213   1.787   0.000  0.00  0.00    -0.278 N 
ATOM     18  H   UNL     1      -3.750   0.360   0.000  0.00  0.00    +0.155 HD
ATOM     19  C   UNL     1      -5.640   2.250   0.000  0.00  0.00    +0.269 C 
ATOM     20  O   UNL     1      -6.854   1.368   0.000  0.00  0.00    -0.268 OA
ENDROOT
BRANCH   7   6
ATOM      5  C   UNL     1      -9.438   4.903   0.000  0.00  0.00    +0.181 C 
ATOM      6  N   UNL     1      -8.224   4.022   0.000  0.00  0.00    -0.153 NA
BRANCH   5   4
ATOM      1  C   UNL     1     -13.222   4.040   0.000  0.00  0.00    +0.196 A 
ATOM      2  C   UNL     1     -12.611   2.669   0.000  0.00  0.00    +0.042 A 
ATOM      3  C   UNL     1     -11.120   2.826   0.000  0.00  0.00    +0.051 A 
ATOM      4  C   UNL     1     -10.808   4.293   0.000  0.00  0.00    +0.147 A 
ATOM     21  O   UNL     1     -12.107   5.043   0.000  0.00  0.00    -0.462 OA
ENDBRANCH   5   4
ENDBRANCH   7   6
TORSDOF 2