REMARK  Name = 310618
REMARK  5 active torsions:
REMARK  status: ('A' for Active; 'I' for Inactive)
REMARK    1  A    between atoms: C_2  and  O_17
REMARK    2  A    between atoms: C_3  and  O_18
REMARK    3  A    between atoms: C_5  and  C_16
REMARK    4  A    between atoms: C_10  and  C_13
REMARK    5  A    between atoms: C_13  and  C_15
REMARK                            x       y       z     vdW  Elec       q    Type
REMARK                         _______ _______ _______ _____ _____    ______ ____
ROOT
ATOM      1  C   UNL     1      -9.209   1.047   0.000  0.00  0.00    +0.261 A 
ATOM      2  C   UNL     1      -7.743   1.364   0.000  0.00  0.00    +0.171 A 
ATOM      5  C   UNL     1      -6.581   0.416   0.000  0.00  0.00    +0.001 A 
ATOM      6  C   UNL     1      -5.274   1.152   0.000  0.00  0.00    +0.040 C 
ATOM      7  C   UNL     1      -3.983   0.388   0.000  0.00  0.00    +0.013 C 
ATOM      8  C   UNL     1      -3.999  -1.112   0.000  0.00  0.00    +0.019 C 
ATOM     12  C   UNL     1      -5.306  -1.847   0.000  0.00  0.00    +0.043 C 
ATOM     13  C   UNL     1      -6.597  -1.083   0.000  0.00  0.00    -0.037 A 
ATOM     14  C   UNL     1      -7.780  -2.006   0.000  0.00  0.00    -0.043 A 
ATOM     15  C   UNL     1      -7.462  -3.472   0.000  0.00  0.00    +0.044 C 
ATOM     16  C   UNL     1      -9.239  -1.656   0.000  0.00  0.00    +0.053 A 
ATOM     17  C   UNL     1      -9.875  -0.298   0.000  0.00  0.00    +0.168 A 
ATOM     20  O   UNL     1     -10.132   2.229   0.000  0.00  0.00    -0.280 OA
ENDROOT
BRANCH   8   9
ATOM      9  C   UNL     1      -2.708  -1.876   0.000  0.00  0.00    -0.076 C 
ATOM     10  C   UNL     1      -1.401  -1.140   0.000  0.00  0.00    +0.039 C 
ATOM     11  C   UNL     1      -2.724  -3.376   0.000  0.00  0.00    +0.007 C 
ENDBRANCH   8   9
BRANCH   2   3
ATOM      3  O   UNL     1      -7.394   2.823   0.000  0.00  0.00    -0.503 OA
ATOM      4  H   UNL     1      -6.495   3.090   0.000  0.00  0.00    +0.292 HD
ENDBRANCH   2   3
BRANCH  17  18
ATOM     18  O   UNL     1     -11.374  -0.281   0.000  0.00  0.00    -0.503 OA
ATOM     19  H   UNL     1     -11.834   0.535   0.000  0.00  0.00    +0.292 HD
ENDBRANCH  17  18
TORSDOF 3