REMARK  Name = 329277
REMARK  6 active torsions:
REMARK  status: ('A' for Active; 'I' for Inactive)
REMARK    1  A    between atoms: O_2  and  C_4
REMARK    2  A    between atoms: O_2  and  C_23
REMARK    3  A    between atoms: C_5  and  O_25
REMARK    4  A    between atoms: C_7  and  C_26
REMARK    5  A    between atoms: N_8  and  N_10
REMARK    6  A    between atoms: C_23  and  C_24
REMARK                            x       y       z     vdW  Elec       q    Type
REMARK                         _______ _______ _______ _____ _____    ______ ____
ROOT
ATOM      9  N   UNL     1      -0.070   8.840   0.000  0.00  0.00    -0.144 NA
ATOM     10  C   UNL     1       0.086  10.332   0.000  0.00  0.00    +0.157 C 
ATOM     11  C   UNL     1      -1.028  11.335   0.000  0.00  0.00    +0.031 A 
ATOM     12  C   UNL     1      -2.520  11.179   0.000  0.00  0.00    +0.032 A 
ATOM     13  C   UNL     1      -3.402  12.392   0.000  0.00  0.00    +0.043 A 
ATOM     14  C   UNL     1      -2.792  13.762   0.000  0.00  0.00    +0.042 A 
ATOM     15  C   UNL     1      -1.300  13.919   0.000  0.00  0.00    +0.064 A 
ATOM     16 CL   UNL     1      -0.690  15.290   0.000  0.00  0.00    -0.082 Cl
ATOM     17 CL   UNL     1      -4.894  12.235   0.000  0.00  0.00    -0.083 Cl
ATOM     18  C   UNL     1      -0.418  12.706   0.000  0.00  0.00    +0.062 A 
ATOM     19  N   UNL     1       1.074  12.549   0.000  0.00  0.00    -0.278 N 
ATOM     20  H   UNL     1       2.077  13.664   0.000  0.00  0.00    +0.155 HD
ATOM     21  C   UNL     1       1.386  11.082   0.000  0.00  0.00    +0.269 C 
ATOM     22  O   UNL     1       2.756  10.472   0.000  0.00  0.00    -0.268 OA
ENDROOT
BRANCH   9   8
ATOM      7  C   UNL     1       0.986   6.466   0.000  0.00  0.00    +0.146 C 
ATOM      8  N   UNL     1       1.143   7.958   0.000  0.00  0.00    -0.156 NA
BRANCH   7   6
ATOM      1  C   UNL     1       4.627   3.821   0.000  0.00  0.00    +0.049 A 
ATOM      2  C   UNL     1       3.257   3.211   0.000  0.00  0.00    +0.162 A 
ATOM      3  C   UNL     1       2.043   4.093   0.000  0.00  0.00    +0.167 A 
ATOM      6  C   UNL     1       2.200   5.585   0.000  0.00  0.00    +0.040 A 
ATOM     23  C   UNL     1       3.570   6.195   0.000  0.00  0.00    +0.013 A 
ATOM     27  C   UNL     1       4.784   5.313   0.000  0.00  0.00    +0.004 A 
BRANCH   3   4
ATOM      4  O   UNL     1       0.673   3.483   0.000  0.00  0.00    -0.503 OA
ATOM      5  H   UNL     1      -0.085   4.034   0.000  0.00  0.00    +0.292 HD
ENDBRANCH   3   4
BRANCH   2  24
ATOM     24  O   UNL     1       3.100   1.720   0.000  0.00  0.00    -0.489 OA
BRANCH  24  25
ATOM     25  C   UNL     1       1.730   1.109   0.000  0.00  0.00    +0.226 C 
ATOM     26  C   UNL     1       1.573  -0.382   0.000  0.00  0.00    +0.048 C 
ENDBRANCH  24  25
ENDBRANCH   2  24
ENDBRANCH   7   6
ENDBRANCH   9   8
TORSDOF 5