REMARK  Name = 2979
REMARK  7 active torsions:
REMARK  status: ('A' for Active; 'I' for Inactive)
REMARK    1  A    between atoms: C_2  and  C_24
REMARK    2  A    between atoms: C_8  and  C_23
REMARK    3  A    between atoms: C_14  and  C_19
REMARK    4  A    between atoms: C_14  and  C_20
REMARK    5  A    between atoms: C_20  and  O_22
REMARK    6  A    between atoms: C_24  and  C_25
REMARK    7  A    between atoms: C_24  and  C_26
REMARK                            x       y       z     vdW  Elec       q    Type
REMARK                         _______ _______ _______ _____ _____    ______ ____
ROOT
ATOM      1  C   UNL     1      -2.569  -3.668   0.000  0.00  0.00    +0.025 C 
ATOM      2  C   UNL     1      -3.868  -4.418   0.000  0.00  0.00    +0.007 C 
ATOM      3  C   UNL     1      -3.868  -5.918   0.000  0.00  0.00    +0.019 C 
ATOM      4  C   UNL     1      -5.167  -6.668   0.000  0.00  0.00    -0.024 C 
ATOM      5  C   UNL     1      -5.167  -5.168   0.000  0.00  0.00    +0.012 C 
ATOM      6  C   UNL     1      -5.167  -8.168   0.000  0.00  0.00    +0.013 C 
ATOM      7  C   UNL     1      -6.466  -8.918   0.000  0.00  0.00    +0.068 C 
ATOM     12  C   UNL     1      -7.216 -10.217   0.000  0.00  0.00    +0.023 C 
ATOM     13  C   UNL     1      -7.765  -8.168   0.000  0.00  0.00    +0.018 C 
ATOM     14  C   UNL     1      -7.765  -6.668   0.000  0.00  0.00    +0.002 C 
ATOM     15  C   UNL     1      -3.868  -8.918   0.000  0.00  0.00    +0.026 C 
ATOM     16  C   UNL     1      -2.569  -8.168   0.000  0.00  0.00    +0.103 C 
ATOM     17 CL   UNL     1      -1.270  -8.918   0.000  0.00  0.00    -0.120 Cl
ATOM     18  C   UNL     1      -6.466  -5.918   0.000  0.00  0.00    +0.007 C 
ATOM     19  C   UNL     1      -2.569  -6.668   0.000  0.00  0.00    +0.082 C 
ATOM     20 CL   UNL     1      -1.270  -7.418   0.000  0.00  0.00    -0.115 Cl
ATOM     21  C   UNL     1      -1.270  -5.918   0.000  0.00  0.00    +0.124 C 
ATOM     22 CL   UNL     1       0.029  -6.668   0.000  0.00  0.00    -0.118 Cl
ATOM     23  C   UNL     1      -1.270  -4.418   0.000  0.00  0.00    +0.065 C 
ATOM     27 CL   UNL     1       0.208  -4.679   0.000  0.00  0.00    -0.116 Cl
ENDROOT
BRANCH  23  24
ATOM     24  C   UNL     1      -0.757  -3.009   0.000  0.00  0.00    +0.005 C 
ATOM     25  C   UNL     1       0.721  -2.748   0.000  0.00  0.00    +0.009 C 
ATOM     26  C   UNL     1      -1.721  -1.859   0.000  0.00  0.00    +0.009 C 
ENDBRANCH  23  24
BRANCH   7   8
ATOM      8  C   UNL     1      -4.322 -10.156   0.000  0.00  0.00    +0.311 C 
ATOM     11  O   UNL     1      -3.023  -9.406   0.000  0.00  0.00    -0.250 OA
BRANCH   8   9
ATOM      9  O   UNL     1      -4.322 -11.656   0.000  0.00  0.00    -0.480 OA
ATOM     10  H   UNL     1      -5.134 -12.124   0.000  0.00  0.00    +0.295 HD
ENDBRANCH   8   9
ENDBRANCH   7   8
TORSDOF 3