REMARK  Name = 294577
REMARK  8 active torsions:
REMARK  status: ('A' for Active; 'I' for Inactive)
REMARK    1  A    between atoms: C_4  and  C_17
REMARK    2  A    between atoms: C_4  and  C_18
REMARK    3  A    between atoms: C_5  and  C_19
REMARK    4  A    between atoms: C_12  and  O_21
REMARK    5  A    between atoms: C_13  and  O_20
REMARK    6  A    between atoms: C_14  and  C_22
REMARK    7  A    between atoms: C_22  and  C_23
REMARK    8  A    between atoms: C_22  and  C_24
REMARK                            x       y       z     vdW  Elec       q    Type
REMARK                         _______ _______ _______ _____ _____    ______ ____
ROOT
ATOM      1  C   UNL     1      -7.419  -6.649   0.000  0.00  0.00    +0.001 C 
ATOM      2  C   UNL     1      -7.419  -8.149   0.000  0.00  0.00    +0.007 C 
ATOM      3  C   UNL     1      -6.120  -8.899   0.000  0.00  0.00    -0.031 C 
ATOM      4  C   UNL     1      -5.156 -10.049   0.000  0.00  0.00    +0.011 C 
ATOM      5  C   UNL     1      -7.084 -10.049   0.000  0.00  0.00    +0.011 C 
ATOM      6  C   UNL     1      -4.821  -8.149   0.000  0.00  0.00    +0.008 C 
ATOM      7  C   UNL     1      -3.522  -8.899   0.000  0.00  0.00    +0.041 C 
ATOM      8  C   UNL     1      -2.223  -8.149   0.000  0.00  0.00    +0.149 C 
ATOM     11  C   UNL     1      -2.223  -6.649   0.000  0.00  0.00    +0.035 C 
ATOM     12  C   UNL     1      -0.924  -5.899   0.000  0.00  0.00    +0.192 C 
ATOM     13  O   UNL     1       0.375  -6.649   0.000  0.00  0.00    -0.287 OA
ATOM     14  C   UNL     1      -0.924  -4.399   0.000  0.00  0.00    +0.047 C 
ATOM     18  C   UNL     1      -2.223  -3.650   0.000  0.00  0.00    +0.171 C 
ATOM     21  C   UNL     1      -3.522  -4.399   0.000  0.00  0.00    +0.225 C 
ATOM     22  O   UNL     1      -4.821  -3.650   0.000  0.00  0.00    -0.284 OA
ATOM     23  C   UNL     1      -3.522  -5.899   0.000  0.00  0.00    +0.018 C 
ATOM     24  C   UNL     1      -4.821  -6.649   0.000  0.00  0.00    +0.001 C 
ATOM     25  C   UNL     1      -4.821  -5.149   0.000  0.00  0.00    +0.016 C 
ATOM     26  C   UNL     1      -6.120  -5.899   0.000  0.00  0.00    +0.012 C 
ENDROOT
BRANCH  14  15
ATOM     15  C   UNL     1       0.375  -3.650   0.000  0.00  0.00    +0.020 C 
ATOM     16  C   UNL     1       1.674  -4.399   0.000  0.00  0.00    +0.012 C 
ATOM     17  C   UNL     1       0.375  -2.150   0.000  0.00  0.00    +0.012 C 
ENDBRANCH  14  15
BRANCH   8   9
ATOM      9  O   UNL     1      -0.924  -8.899   0.000  0.00  0.00    -0.387 OA
ATOM     10  H   UNL     1      -0.924  -9.869   0.000  0.00  0.00    +0.210 HD
ENDBRANCH   8   9
BRANCH  18  19
ATOM     19  O   UNL     1      -2.223  -2.150   0.000  0.00  0.00    -0.503 OA
ATOM     20  H   UNL     1      -1.412  -1.681   0.000  0.00  0.00    +0.292 HD
ENDBRANCH  18  19
TORSDOF 3