REMARK  Name = 320846
REMARK  1 active torsions:
REMARK  status: ('A' for Active; 'I' for Inactive)
REMARK    1  A    between atoms: C_1  and  N_19
REMARK                            x       y       z     vdW  Elec       q    Type
REMARK                         _______ _______ _______ _____ _____    ______ ____
ROOT
ATOM      1  C   UNL     1       2.049   4.241   0.000  0.00  0.00    +0.025 A 
ATOM      5  C   UNL     1       3.348   4.991   0.000  0.00  0.00    +0.034 A 
ATOM      6  C   UNL     1       4.647   4.241   0.000  0.00  0.00    +0.045 A 
ATOM      7  C   UNL     1       5.946   4.991   0.000  0.00  0.00    +0.275 C 
ATOM      8  N   UNL     1       7.245   4.241   0.000  0.00  0.00    -0.148 N 
ATOM      9  C   UNL     1       8.672   4.704   0.000  0.00  0.00    +0.336 C 
ATOM     10  O   UNL     1       9.135   6.131   0.000  0.00  0.00    -0.242 OA
ATOM     11  C   UNL     1       9.553   3.491   0.000  0.00  0.00    +0.077 A 
ATOM     12  C   UNL     1      11.045   3.334   0.000  0.00  0.00    +0.016 A 
ATOM     13  C   UNL     1      11.655   1.964   0.000  0.00  0.00    +0.001 A 
ATOM     14  C   UNL     1      10.774   0.750   0.000  0.00  0.00    +0.001 A 
ATOM     15  C   UNL     1       9.282   0.907   0.000  0.00  0.00    +0.017 A 
ATOM     16  C   UNL     1       8.672   2.277   0.000  0.00  0.00    +0.080 A 
ATOM     17  C   UNL     1       7.245   2.741   0.000  0.00  0.00    +0.329 C 
ATOM     18  N   UNL     1       5.946   1.991   0.000  0.00  0.00    -0.041 NA
ATOM     19  C   UNL     1       4.647   2.741   0.000  0.00  0.00    +0.183 A 
ATOM     20  C   UNL     1       3.348   1.991   0.000  0.00  0.00    +0.057 A 
ATOM     21  C   UNL     1       2.049   2.741   0.000  0.00  0.00    +0.027 A 
ENDROOT
BRANCH   1   2
ATOM      2  N   UNL     1       0.750   4.991   0.000  0.00  0.00    -0.358 N 
ATOM      3  H   UNL     1      -0.103   4.498   0.000  0.00  0.00    +0.142 HD
ATOM      4  H   UNL     1       0.750   5.975   0.000  0.00  0.00    +0.142 HD
ENDBRANCH   1   2
TORSDOF 1