REMARK  Name = 308847
REMARK  6 active torsions:
REMARK  status: ('A' for Active; 'I' for Inactive)
REMARK    1  A    between atoms: C_12  and  N_17
REMARK    2  A    between atoms: N_13  and  C_18
REMARK    3  A    between atoms: N_16  and  C_19
REMARK    4  A    between atoms: N_16  and  C_20
REMARK    5  A    between atoms: N_16  and  C_21
REMARK    6  A    between atoms: C_18  and  C_19
REMARK                            x       y       z     vdW  Elec       q    Type
REMARK                         _______ _______ _______ _____ _____    ______ ____
ROOT
ATOM      1  C   UNL     1       1.775   8.819   0.000  0.00  0.00    +0.014 A 
ATOM      2  C   UNL     1       0.275   8.819   0.000  0.00  0.00    +0.001 A 
ATOM      3  C   UNL     1      -0.475   7.520   0.000  0.00  0.00    +0.008 A 
ATOM      4  C   UNL     1       0.275   6.221   0.000  0.00  0.00    -0.015 A 
ATOM      5  C   UNL     1      -0.475   4.922   0.000  0.00  0.00    +0.031 A 
ATOM      6  C   UNL     1       0.275   3.623   0.000  0.00  0.00    +0.026 A 
ATOM     10  C   UNL     1       1.775   3.623   0.000  0.00  0.00    +0.036 A 
ATOM     11  C   UNL     1       2.525   4.922   0.000  0.00  0.00    +0.050 A 
ATOM     12  C   UNL     1       4.024   4.922   0.000  0.00  0.00    +0.262 A 
ATOM     13  O   UNL     1       4.774   3.623   0.000  0.00  0.00    -0.267 OA
ATOM     14  N   UNL     1       4.774   6.221   0.000  0.00  0.00    -0.274 N 
ATOM     20  C   UNL     1       4.024   7.520   0.000  0.00  0.00    +0.262 A 
ATOM     21  O   UNL     1       4.774   8.819   0.000  0.00  0.00    -0.267 OA
ATOM     22  C   UNL     1       1.775   6.221   0.000  0.00  0.00    +0.007 A 
ATOM     23  C   UNL     1       2.525   7.520   0.000  0.00  0.00    +0.048 A 
ENDROOT
BRANCH   6   7
ATOM      7  N   UNL     1      -0.475   2.324   0.000  0.00  0.00    -0.358 N 
ATOM      8  H   UNL     1       0.017   1.471   0.000  0.00  0.00    +0.142 HD
ATOM      9  H   UNL     1      -1.460   2.324   0.000  0.00  0.00    +0.142 HD
ENDBRANCH   6   7
BRANCH  14  15
ATOM     15  C   UNL     1       6.274   6.221   0.000  0.00  0.00    +0.144 C 
BRANCH  15  16
ATOM     16  C   UNL     1       6.788   7.630   0.000  0.00  0.00    +0.105 C 
BRANCH  16  17
ATOM     17  N   UNL     1       8.265   7.891   0.000  0.00  0.00    -0.307 NA
ATOM     18  C   UNL     1       8.778   9.300   0.000  0.00  0.00    +0.104 C 
ATOM     19  C   UNL     1       9.229   6.742   0.000  0.00  0.00    +0.104 C 
ENDBRANCH  16  17
ENDBRANCH  15  16
ENDBRANCH  14  15
TORSDOF 4