REMARK  Name = 307454
REMARK  5 active torsions:
REMARK  status: ('A' for Active; 'I' for Inactive)
REMARK    1  A    between atoms: C_3  and  C_14
REMARK    2  A    between atoms: N_10  and  N_11
REMARK    3  A    between atoms: N_10  and  C_16
REMARK    4  A    between atoms: C_14  and  N_15
REMARK    5  A    between atoms: C_16  and  C_17
REMARK                            x       y       z     vdW  Elec       q    Type
REMARK                         _______ _______ _______ _____ _____    ______ ____
ROOT
ATOM      4  N   UNL     1       1.601   6.870   0.000  0.00  0.00    -0.294 N 
ATOM      5  H   UNL     1       2.585   6.870   0.000  0.00  0.00    +0.151 HD
ATOM      6  C   UNL     1       0.851   8.169   0.000  0.00  0.00    +0.324 C 
ATOM      7  O   UNL     1      -0.649   8.169   0.000  0.00  0.00    -0.251 OA
ATOM      8  N   UNL     1       1.601   9.468   0.000  0.00  0.00    -0.140 N 
ENDROOT
BRANCH   8  12
ATOM     12  N   UNL     1       0.851  10.767   0.000  0.00  0.00    +0.053 NA
ATOM     13  O   UNL     1       1.601  12.066   0.000  0.00  0.00    -0.126 OA
ENDBRANCH   8  12
BRANCH   4   3
ATOM      3  C   UNL     1       0.851   5.571   0.000  0.00  0.00    +0.147 C 
BRANCH   3   2
ATOM      1  C   UNL     1      -1.400   6.870   0.000  0.00  0.00    +0.017 A 
ATOM      2  C   UNL     1      -0.649   5.571   0.000  0.00  0.00    +0.034 A 
ATOM     14  C   UNL     1      -1.400   4.272   0.000  0.00  0.00    +0.327 A 
ATOM     15  N   UNL     1      -2.900   4.272   0.000  0.00  0.00    -0.177 N 
ATOM     16  O   UNL     1      -3.650   2.973   0.000  0.00  0.00    -0.620 OA
ATOM     17  C   UNL     1      -3.650   5.571   0.000  0.00  0.00    +0.322 A 
ATOM     18  C   UNL     1      -2.900   6.870   0.000  0.00  0.00    +0.071 A 
ENDBRANCH   3   2
ENDBRANCH   4   3
BRANCH   8   9
ATOM      9  C   UNL     1       3.100   9.468   0.000  0.00  0.00    +0.155 C 
BRANCH   9  10
ATOM     10  C   UNL     1       3.850  10.767   0.000  0.00  0.00    +0.130 C 
ATOM     11 CL   UNL     1       5.351  10.767   0.000  0.00  0.00    -0.124 Cl
ENDBRANCH   9  10
ENDBRANCH   8   9
TORSDOF 5