REMARK  Name = 293015
REMARK  11 active torsions:
REMARK  status: ('A' for Active; 'I' for Inactive)
REMARK    1  A    between atoms: N_1  and  C_16
REMARK    2  A    between atoms: N_1  and  C_18
REMARK    3  A    between atoms: N_1  and  C_20
REMARK    4  A    between atoms: O_2  and  C_3
REMARK    5  A    between atoms: O_2  and  C_21
REMARK    6  A    between atoms: C_3  and  C_22
REMARK    7  A    between atoms: C_8  and  C_22
REMARK    8  A    between atoms: C_14  and  C_23
REMARK    9  A    between atoms: C_16  and  C_17
REMARK   10  A    between atoms: C_18  and  C_19
REMARK   11  A    between atoms: C_20  and  C_21
REMARK                            x       y       z     vdW  Elec       q    Type
REMARK                         _______ _______ _______ _____ _____    ______ ____
ROOT
ATOM      1 CL   UNL     1       7.245  10.500   0.000  0.00  0.00    -0.145 Cl
ATOM      2  H   UNL     1       8.575  10.500   0.000  0.00  0.00    +0.145 HD
ENDROOT
TORSDOF 0