REMARK  Name = 320864
REMARK  3 active torsions:
REMARK  status: ('A' for Active; 'I' for Inactive)
REMARK    1  A    between atoms: C_4  and  C_21
REMARK    2  A    between atoms: C_6  and  O_24
REMARK    3  A    between atoms: N_19  and  N_23
REMARK                            x       y       z     vdW  Elec       q    Type
REMARK                         _______ _______ _______ _____ _____    ______ ____
ROOT
ATOM     11  N   UNL     1       4.377   7.019   0.000  0.00  0.00    -0.174 NA
ATOM     12  C   UNL     1       3.627   5.720   0.000  0.00  0.00    +0.153 C 
ATOM     13  C   UNL     1       2.135   5.563   0.000  0.00  0.00    +0.031 A 
ATOM     14  C   UNL     1       1.824   4.096   0.000  0.00  0.00    +0.062 A 
ATOM     15  C   UNL     1       0.397   3.632   0.000  0.00  0.00    +0.064 A 
ATOM     16 CL   UNL     1       0.085   2.165   0.000  0.00  0.00    -0.082 Cl
ATOM     17  C   UNL     1      -0.718   4.636   0.000  0.00  0.00    +0.042 A 
ATOM     18  C   UNL     1      -0.406   6.103   0.000  0.00  0.00    +0.043 A 
ATOM     19 CL   UNL     1      -1.521   7.107   0.000  0.00  0.00    -0.083 Cl
ATOM     20  N   UNL     1       3.123   3.346   0.000  0.00  0.00    -0.278 N 
ATOM     21  H   UNL     1       3.279   1.854   0.000  0.00  0.00    +0.155 HD
ATOM     22  C   UNL     1       1.021   6.567   0.000  0.00  0.00    +0.032 A 
ATOM     23  C   UNL     1       4.237   4.350   0.000  0.00  0.00    +0.269 C 
ATOM     24  O   UNL     1       5.705   4.038   0.000  0.00  0.00    -0.268 OA
ENDROOT
BRANCH  11   9
ATOM      8  C   UNL     1       6.627   8.318   0.000  0.00  0.00    +0.267 C 
ATOM      9  N   UNL     1       5.877   7.019   0.000  0.00  0.00    -0.202 N 
ATOM     10  H   UNL     1       6.369   6.166   0.000  0.00  0.00    +0.178 HD
ATOM     25  O   UNL     1       5.877   9.617   0.000  0.00  0.00    -0.268 OA
BRANCH   8   7
ATOM      1  C   UNL     1      10.377   9.617   0.000  0.00  0.00    +0.001 A 
ATOM      2  C   UNL     1      11.127   8.318   0.000  0.00  0.00    +0.004 A 
ATOM      3  C   UNL     1      10.377   7.019   0.000  0.00  0.00    +0.046 A 
ATOM      4  C   UNL     1       8.877   7.019   0.000  0.00  0.00    +0.129 A 
ATOM      7  C   UNL     1       8.127   8.318   0.000  0.00  0.00    +0.080 A 
ATOM     26  C   UNL     1       8.877   9.617   0.000  0.00  0.00    +0.017 A 
BRANCH   4   5
ATOM      5  O   UNL     1       8.127   5.720   0.000  0.00  0.00    -0.506 OA
ATOM      6  H   UNL     1       7.190   5.720   0.000  0.00  0.00    +0.292 HD
ENDBRANCH   4   5
ENDBRANCH   8   7
ENDBRANCH  11   9
TORSDOF 3