REMARK  Name = 323241
REMARK  5 active torsions:
REMARK  status: ('A' for Active; 'I' for Inactive)
REMARK    1  A    between atoms: C_5  and  C_7
REMARK    2  A    between atoms: C_7  and  C_9
REMARK    3  A    between atoms: N_8  and  N_11
REMARK    4  A    between atoms: C_10  and  N_11
REMARK    5  A    between atoms: C_10  and  N_14
REMARK                            x       y       z     vdW  Elec       q    Type
REMARK                         _______ _______ _______ _____ _____    ______ ____
ROOT
ATOM      7  N   UNL     1       7.598   2.430   0.000  0.00  0.00    +0.000 N 
ATOM      8  H   UNL     1       7.598   1.446   0.000  0.00  0.00    +0.000 HD
ENDROOT
BRANCH   7   6
ATOM      4  C   UNL     1       5.000   2.430   0.000  0.00  0.00    +0.000 C 
ATOM      5  C   UNL     1       5.000   0.930   0.000  0.00  0.00    +0.000 C 
ATOM      6  N   UNL     1       6.299   3.180   0.000  0.00  0.00    +0.000 NA
BRANCH   4   3
ATOM      1  C   UNL     1       1.103   3.180   0.000  0.00  0.00    +0.000 A 
ATOM      2  C   UNL     1       2.402   2.430   0.000  0.00  0.00    +0.000 A 
ATOM      3  C   UNL     1       3.701   3.180   0.000  0.00  0.00    +0.000 A 
ATOM     20  N   UNL     1       3.701   4.680   0.000  0.00  0.00    +0.000 NA
ATOM     21  C   UNL     1       2.402   5.430   0.000  0.00  0.00    +0.000 A 
ATOM     22  C   UNL     1       1.103   4.680   0.000  0.00  0.00    +0.000 A 
ENDBRANCH   4   3
ENDBRANCH   7   6
BRANCH   7   9
ATOM      9  C   UNL     1       8.897   3.180   0.000  0.00  0.00    +0.000 C 
ATOM     19 SE   UNL     1       8.897   4.680   0.000  0.00  0.00    +0.000 Se
BRANCH   9  10
ATOM     10  N   UNL     1      10.196   2.430   0.000  0.00  0.00    +0.000 N 
ATOM     11  C   UNL     1      10.084   0.934   0.000  0.00  0.00    +0.000 C 
ATOM     12  C   UNL     1      11.184  -0.086   0.000  0.00  0.00    +0.000 C 
ATOM     13  C   UNL     1      11.124   1.505   0.000  0.00  0.00    +0.000 C 
ATOM     14  C   UNL     1      12.928   1.242   0.000  0.00  0.00    +0.000 C 
ATOM     15  C   UNL     1      12.869   2.833   0.000  0.00  0.00    +0.000 C 
ATOM     16  C   UNL     1      13.417   1.437   0.000  0.00  0.00    +0.000 C 
ATOM     17  C   UNL     1      12.667   0.138   0.000  0.00  0.00    +0.000 C 
ATOM     18  C   UNL     1      11.435   3.275   0.000  0.00  0.00    +0.000 C 
ENDBRANCH   9  10
ENDBRANCH   7   9
TORSDOF 4