REMARK  Name = 32982
REMARK  12 active torsions:
REMARK  status: ('A' for Active; 'I' for Inactive)
REMARK    1  A    between atoms: C_1  and  O_8
REMARK    2  A    between atoms: C_2  and  O_10
REMARK    3  A    between atoms: C_5  and  C_7
REMARK    4  A    between atoms: O_8  and  C_9
REMARK    5  A    between atoms: C_11  and  C_12
REMARK    6  A    between atoms: C_12  and  C_13
REMARK    7  A    between atoms: C_13  and  C_15
REMARK    8  A    between atoms: C_15  and  C_16
REMARK    9  A    between atoms: C_18  and  C_19
REMARK   10  A    between atoms: C_22  and  O_27
REMARK   11  A    between atoms: C_23  and  O_25
REMARK   12  A    between atoms: O_25  and  C_26
REMARK                            x       y       z     vdW  Elec       q    Type
REMARK                         _______ _______ _______ _____ _____    ______ ____
ROOT
ATOM     10  C   UNL     1     -11.142  -3.000   0.000  0.00  0.00    +0.158 C 
ENDROOT
BRANCH  10   8
ATOM      8  C   UNL     1     -12.441  -2.250   0.000  0.00  0.00    +0.164 C 
ATOM      9  O   UNL     1     -12.441  -0.750   0.000  0.00  0.00    -0.292 OA
BRANCH   8   7
ATOM      6  C   UNL     1     -15.039  -2.250   0.000  0.00  0.00    +0.011 C 
ATOM      7  C   UNL     1     -13.740  -3.000   0.000  0.00  0.00    +0.047 C 
BRANCH   6   5
ATOM      1  C   UNL     1     -18.936  -3.000   0.000  0.00  0.00    +0.162 A 
ATOM      4  C   UNL     1     -17.637  -2.250   0.000  0.00  0.00    +0.057 A 
ATOM      5  C   UNL     1     -16.339  -3.000   0.000  0.00  0.00    -0.021 A 
ATOM     25  C   UNL     1     -16.339  -4.500   0.000  0.00  0.00    +0.012 A 
ATOM     26  C   UNL     1     -17.637  -5.250   0.000  0.00  0.00    +0.050 A 
ATOM     27  C   UNL     1     -18.936  -4.500   0.000  0.00  0.00    +0.158 A 
BRANCH   1   2
ATOM      2  O   UNL     1     -20.236  -2.250   0.000  0.00  0.00    -0.491 OA
ATOM      3  C   UNL     1     -21.535  -3.000   0.000  0.00  0.00    +0.277 C 
ENDBRANCH   1   2
BRANCH  27  28
ATOM     28  O   UNL     1     -20.236  -5.250   0.000  0.00  0.00    -0.503 OA
ATOM     29  H   UNL     1     -21.047  -4.781   0.000  0.00  0.00    +0.292 HD
ENDBRANCH  27  28
ENDBRANCH   6   5
ENDBRANCH   8   7
ENDBRANCH  10   8
BRANCH  10  11
ATOM     11  C   UNL     1      -9.843  -2.250   0.000  0.00  0.00    +0.164 C 
ATOM     12  O   UNL     1      -9.843  -0.750   0.000  0.00  0.00    -0.292 OA
BRANCH  11  13
ATOM     13  C   UNL     1      -8.544  -3.000   0.000  0.00  0.00    +0.047 C 
ATOM     14  C   UNL     1      -7.245  -2.250   0.000  0.00  0.00    +0.011 C 
BRANCH  14  15
ATOM     15  C   UNL     1      -5.946  -3.000   0.000  0.00  0.00    -0.021 A 
ATOM     16  C   UNL     1      -4.647  -2.250   0.000  0.00  0.00    +0.057 A 
ATOM     17  C   UNL     1      -3.348  -3.000   0.000  0.00  0.00    +0.162 A 
ATOM     20  C   UNL     1      -3.348  -4.500   0.000  0.00  0.00    +0.158 A 
ATOM     23  C   UNL     1      -4.647  -5.250   0.000  0.00  0.00    +0.050 A 
ATOM     24  C   UNL     1      -5.946  -4.500   0.000  0.00  0.00    +0.012 A 
BRANCH  17  18
ATOM     18  O   UNL     1      -2.049  -2.250   0.000  0.00  0.00    -0.491 OA
ATOM     19  C   UNL     1      -0.750  -3.000   0.000  0.00  0.00    +0.277 C 
ENDBRANCH  17  18
BRANCH  20  21
ATOM     21  O   UNL     1      -2.049  -5.250   0.000  0.00  0.00    -0.503 OA
ATOM     22  H   UNL     1      -2.049  -6.187   0.000  0.00  0.00    +0.292 HD
ENDBRANCH  20  21
ENDBRANCH  14  15
ENDBRANCH  11  13
ENDBRANCH  10  11
TORSDOF 10