REMARK  Name = 328587
REMARK  2 active torsions:
REMARK  status: ('A' for Active; 'I' for Inactive)
REMARK    1  A    between atoms: C_6  and  C_12
REMARK    2  A    between atoms: C_6  and  C_13
REMARK                            x       y       z     vdW  Elec       q    Type
REMARK                         _______ _______ _______ _____ _____    ______ ____
ROOT
ATOM      1  O   UNL     1      -4.559   6.509   0.000  0.00  0.00    +0.000 OA
ATOM      2  N   UNL     1      -5.309   5.210   0.000  0.00  0.00    +0.000 NA
ATOM      3  C   UNL     1      -4.248   4.149   0.000  0.00  0.00    +0.000 C 
ATOM      4  C   UNL     1      -4.248   2.649   0.000  0.00  0.00    +0.000 C 
ATOM      5  C   UNL     1      -2.949   1.899   0.000  0.00  0.00    +0.000 C 
ATOM      6  C   UNL     1      -1.985   0.750   0.000  0.00  0.00    +0.000 C 
ATOM      7  C   UNL     1      -3.913   0.750   0.000  0.00  0.00    +0.000 C 
ATOM      8  C   UNL     1      -1.650   2.649   0.000  0.00  0.00    +0.000 C 
ATOM      9  C   UNL     1      -1.650   4.149   0.000  0.00  0.00    +0.000 C 
ATOM     10  N   UNL     1      -0.750   5.488   0.000  0.00  0.00    +0.000 NA
ATOM     11  O   UNL     1      -1.500   6.787   0.000  0.00  0.00    +0.000 OA
ATOM     12  C   UNL     1      -2.949   4.899   0.000  0.00  0.00    +0.000 C 
ATOM     13 SE   UNL     1      -2.949   6.399   0.000  0.00  0.00    +0.000 Se
ENDROOT
TORSDOF 0