REMARK  Name = 306864
REMARK  26 active torsions:
REMARK  status: ('A' for Active; 'I' for Inactive)
REMARK    1  A    between atoms: C_2  and  C_71
REMARK    2  A    between atoms: C_5  and  C_70
REMARK    3  A    between atoms: C_9  and  C_59
REMARK    4  A    between atoms: C_10  and  C_55
REMARK    5  A    between atoms: C_11  and  C_65
REMARK    6  A    between atoms: C_13  and  C_69
REMARK    7  A    between atoms: C_19  and  O_51
REMARK    8  A    between atoms: C_20  and  O_48
REMARK    9  A    between atoms: C_21  and  O_48
REMARK   10  A    between atoms: C_22  and  O_45
REMARK   11  A    between atoms: C_23  and  O_45
REMARK   12  A    between atoms: C_24  and  O_54
REMARK   13  A    between atoms: C_26  and  C_68
REMARK   14  A    between atoms: C_28  and  O_50
REMARK   15  A    between atoms: C_29  and  O_66
REMARK   16  A    between atoms: C_32  and  O_51
REMARK   17  A    between atoms: C_33  and  O_63
REMARK   18  A    between atoms: C_34  and  O_60
REMARK   19  A    between atoms: C_35  and  O_57
REMARK   20  A    between atoms: C_36  and  O_56
REMARK   21  A    between atoms: C_39  and  C_61
REMARK   22  A    between atoms: C_40  and  O_50
REMARK   23  A    between atoms: C_41  and  O_58
REMARK   24  A    between atoms: C_42  and  O_64
REMARK   25  A    between atoms: C_43  and  O_62
REMARK   26  A    between atoms: C_65  and  O_67
REMARK                            x       y       z     vdW  Elec       q    Type
REMARK                         _______ _______ _______ _____ _____    ______ ____
ROOT
ATOM     19  C   UNL     1     -14.771 -13.085   0.000  0.00  0.00    +0.282 C 
ATOM     20  C   UNL     1     -16.142 -13.695   0.000  0.00  0.00    +0.208 C 
ATOM     35  C   UNL     1     -17.355 -12.814   0.000  0.00  0.00    +0.180 C 
ATOM     38  C   UNL     1     -17.198 -11.322   0.000  0.00  0.00    +0.183 C 
ATOM     65  C   UNL     1     -15.828 -10.712   0.000  0.00  0.00    +0.178 C 
ATOM     69  O   UNL     1     -14.615 -11.594   0.000  0.00  0.00    -0.341 OA
ENDROOT
BRANCH  35  36
ATOM     36  O   UNL     1     -15.985 -12.204   0.000  0.00  0.00    -0.386 OA
ATOM     37  H   UNL     1     -15.200 -12.774   0.000  0.00  0.00    +0.210 HD
ENDBRANCH  35  36
BRANCH  19  18
ATOM     18  O   UNL     1     -13.558 -13.967   0.000  0.00  0.00    -0.345 OA
BRANCH  18  17
ATOM      1  C   UNL     1      -0.196  -7.240   0.000  0.00  0.00    +0.166 C 
ATOM      2  O   UNL     1      -1.495  -7.990   0.000  0.00  0.00    -0.348 OA
ATOM      3  C   UNL     1      -1.495  -9.490   0.000  0.00  0.00    +0.173 C 
ATOM      4  C   UNL     1      -0.196 -10.240   0.000  0.00  0.00    +0.065 C 
ATOM      5  C   UNL     1       1.103  -9.490   0.000  0.00  0.00    +0.011 C 
ATOM      6  C   UNL     1      -2.865  -8.880   0.000  0.00  0.00    +0.051 C 
ATOM      7  C   UNL     1      -3.177  -7.413   0.000  0.00  0.00    +0.013 C 
ATOM      8  C   UNL     1      -3.869  -9.995   0.000  0.00  0.00    +0.032 C 
ATOM      9  C   UNL     1      -5.336 -10.307   0.000  0.00  0.00    -0.023 C 
ATOM     10  C   UNL     1      -5.024  -8.839   0.000  0.00  0.00    +0.012 C 
ATOM     11  C   UNL     1      -5.493 -11.798   0.000  0.00  0.00    +0.001 C 
ATOM     12  C   UNL     1      -6.863 -12.408   0.000  0.00  0.00    +0.000 C 
ATOM     13  C   UNL     1      -7.020 -13.900   0.000  0.00  0.00    +0.031 C 
ATOM     14  C   UNL     1      -8.390 -14.510   0.000  0.00  0.00    -0.027 C 
ATOM     15  C   UNL     1      -9.604 -13.629   0.000  0.00  0.00    -0.065 C 
ATOM     16  C   UNL     1     -10.974 -14.239   0.000  0.00  0.00    +0.062 C 
ATOM     17  C   UNL     1     -12.188 -13.357   0.000  0.00  0.00    +0.125 C 
ATOM     70  C   UNL     1     -12.031 -11.865   0.000  0.00  0.00    +0.033 C 
ATOM     71  C   UNL     1     -10.660 -11.255   0.000  0.00  0.00    +0.014 C 
ATOM     72  C   UNL     1      -9.447 -12.137   0.000  0.00  0.00    -0.008 C 
ATOM     73  C   UNL     1      -9.290 -10.645   0.000  0.00  0.00    +0.016 C 
ATOM     74  C   UNL     1      -8.076 -11.527   0.000  0.00  0.00    +0.003 C 
ATOM     75  C   UNL     1      -7.920 -10.035   0.000  0.00  0.00    +0.005 C 
ATOM     76  C   UNL     1      -4.122 -12.408   0.000  0.00  0.00    +0.036 C 
ATOM     77  C   UNL     1      -6.549  -9.425   0.000  0.00  0.00    +0.007 C 
ATOM     78  C   UNL     1      -3.119 -11.294   0.000  0.00  0.00    +0.126 C 
ATOM     79  O   UNL     1      -1.652 -10.982   0.000  0.00  0.00    -0.345 OA
ATOM     80  C   UNL     1       1.103  -7.990   0.000  0.00  0.00    +0.012 C 
ATOM     81  C   UNL     1       2.402  -7.240   0.000  0.00  0.00    +0.010 C 
ENDBRANCH  18  17
ENDBRANCH  19  18
BRANCH  20  21
ATOM     21  O   UNL     1     -16.299 -15.187   0.000  0.00  0.00    -0.338 OA
BRANCH  21  22
ATOM     22  C   UNL     1     -17.669 -15.797   0.000  0.00  0.00    +0.282 C 
ATOM     23  C   UNL     1     -17.826 -17.289   0.000  0.00  0.00    +0.201 C 
ATOM     26  C   UNL     1     -19.196 -17.899   0.000  0.00  0.00    +0.179 C 
ATOM     29  C   UNL     1     -20.409 -17.018   0.000  0.00  0.00    +0.174 C 
ATOM     32  C   UNL     1     -20.253 -15.526   0.000  0.00  0.00    +0.149 C 
ATOM     33  C   UNL     1     -19.039 -16.407   0.000  0.00  0.00    +0.041 C 
ATOM     34  O   UNL     1     -18.882 -14.916   0.000  0.00  0.00    -0.343 OA
BRANCH  23  24
ATOM     24  O   UNL     1     -16.612 -18.171   0.000  0.00  0.00    -0.384 OA
ATOM     25  H   UNL     1     -16.713 -19.135   0.000  0.00  0.00    +0.210 HD
ENDBRANCH  23  24
BRANCH  26  27
ATOM     27  O   UNL     1     -19.353 -19.391   0.000  0.00  0.00    -0.386 OA
ATOM     28  H   UNL     1     -20.239 -19.786   0.000  0.00  0.00    +0.210 HD
ENDBRANCH  26  27
BRANCH  29  30
ATOM     30  O   UNL     1     -21.780 -17.628   0.000  0.00  0.00    -0.387 OA
ATOM     31  H   UNL     1     -22.565 -17.058   0.000  0.00  0.00    +0.210 HD
ENDBRANCH  29  30
ENDBRANCH  21  22
ENDBRANCH  20  21
BRANCH  38  39
ATOM     39  O   UNL     1     -18.412 -10.440   0.000  0.00  0.00    -0.340 OA
BRANCH  39  40
ATOM     40  C   UNL     1     -19.656 -11.279   0.000  0.00  0.00    +0.282 C 
ATOM     41  C   UNL     1     -21.004 -10.622   0.000  0.00  0.00    +0.201 C 
ATOM     44  C   UNL     1     -22.247 -11.460   0.000  0.00  0.00    +0.179 C 
ATOM     47  C   UNL     1     -22.143 -12.957   0.000  0.00  0.00    +0.181 C 
ATOM     62  C   UNL     1     -20.794 -13.614   0.000  0.00  0.00    +0.150 C 
ATOM     63  C   UNL     1     -20.899 -12.118   0.000  0.00  0.00    +0.041 C 
ATOM     64  O   UNL     1     -19.551 -12.775   0.000  0.00  0.00    -0.343 OA
BRANCH  41  42
ATOM     42  O   UNL     1     -21.108  -9.125   0.000  0.00  0.00    -0.384 OA
ATOM     43  H   UNL     1     -20.304  -8.583   0.000  0.00  0.00    +0.210 HD
ENDBRANCH  41  42
BRANCH  44  45
ATOM     45  O   UNL     1     -23.595 -10.803   0.000  0.00  0.00    -0.386 OA
ATOM     46  H   UNL     1     -23.663  -9.835   0.000  0.00  0.00    +0.210 HD
ENDBRANCH  44  45
BRANCH  47  48
ATOM     48  O   UNL     1     -23.386 -13.796   0.000  0.00  0.00    -0.340 OA
BRANCH  48  49
ATOM     49  C   UNL     1     -24.600 -12.914   0.000  0.00  0.00    +0.282 C 
ATOM     50  C   UNL     1     -25.970 -13.524   0.000  0.00  0.00    +0.201 C 
ATOM     53  C   UNL     1     -27.183 -12.642   0.000  0.00  0.00    +0.179 C 
ATOM     56  C   UNL     1     -27.027 -11.150   0.000  0.00  0.00    +0.174 C 
ATOM     59  C   UNL     1     -25.656 -10.540   0.000  0.00  0.00    +0.149 C 
ATOM     60  C   UNL     1     -25.813 -12.032   0.000  0.00  0.00    +0.041 C 
ATOM     61  O   UNL     1     -24.443 -11.422   0.000  0.00  0.00    -0.343 OA
BRANCH  50  51
ATOM     51  O   UNL     1     -26.127 -15.016   0.000  0.00  0.00    -0.384 OA
ATOM     52  H   UNL     1     -27.013 -15.410   0.000  0.00  0.00    +0.210 HD
ENDBRANCH  50  51
BRANCH  53  54
ATOM     54  O   UNL     1     -28.554 -13.252   0.000  0.00  0.00    -0.386 OA
ATOM     55  H   UNL     1     -29.339 -12.682   0.000  0.00  0.00    +0.210 HD
ENDBRANCH  53  54
BRANCH  56  57
ATOM     57  O   UNL     1     -28.240 -10.269   0.000  0.00  0.00    -0.387 OA
ATOM     58  H   UNL     1     -28.139  -9.304   0.000  0.00  0.00    +0.210 HD
ENDBRANCH  56  57
ENDBRANCH  48  49
ENDBRANCH  47  48
ENDBRANCH  39  40
ENDBRANCH  38  39
BRANCH  65  66
ATOM     66  C   UNL     1     -15.671  -9.220   0.000  0.00  0.00    +0.190 C 
BRANCH  66  67
ATOM     67  O   UNL     1     -14.301  -8.610   0.000  0.00  0.00    -0.392 OA
ATOM     68  H   UNL     1     -13.516  -9.180   0.000  0.00  0.00    +0.210 HD
ENDBRANCH  66  67
ENDBRANCH  65  66
TORSDOF 19