REMARK  Name = 299879
REMARK  4 active torsions:
REMARK  status: ('A' for Active; 'I' for Inactive)
REMARK    1  A    between atoms: O_1  and  C_3
REMARK    2  A    between atoms: O_1  and  C_16
REMARK    3  A    between atoms: C_2  and  N_13
REMARK    4  A    between atoms: C_9  and  C_17
REMARK                            x       y       z     vdW  Elec       q    Type
REMARK                         _______ _______ _______ _____ _____    ______ ____
ROOT
ATOM      3  C   UNL     1       3.348   1.500   0.000  0.00  0.00    +0.201 A 
ATOM      4  C   UNL     1       4.647   0.750   0.000  0.00  0.00    +0.099 A 
ATOM      5  C   UNL     1       5.946   1.500   0.000  0.00  0.00    +0.143 A 
ATOM      6  O   UNL     1       7.245   0.750   0.000  0.00  0.00    -0.422 OA
ATOM      7  C   UNL     1       8.544   1.500   0.000  0.00  0.00    +0.337 A 
ATOM      8  O   UNL     1       9.843   0.750   0.000  0.00  0.00    -0.245 OA
ATOM      9  C   UNL     1       8.544   3.000   0.000  0.00  0.00    +0.096 A 
ATOM     10  C   UNL     1       7.245   3.750   0.000  0.00  0.00    -0.033 A 
ATOM     11  C   UNL     1       7.245   5.250   0.000  0.00  0.00    +0.045 C 
ATOM     12  C   UNL     1       5.946   3.000   0.000  0.00  0.00    +0.027 A 
ATOM     13  C   UNL     1       4.647   3.750   0.000  0.00  0.00    +0.100 A 
ATOM     14  C   UNL     1       3.348   3.000   0.000  0.00  0.00    +0.315 A 
ENDROOT
BRANCH  14  15
ATOM     15  N   UNL     1       2.049   3.750   0.000  0.00  0.00    +0.083 N 
ATOM     16  O   UNL     1       2.049   5.250   0.000  0.00  0.00    +0.042 OA
ATOM     17  O   UNL     1       0.750   3.000   0.000  0.00  0.00    -0.576 OA
ENDBRANCH  14  15
BRANCH   3   1
ATOM      1  O   UNL     1       2.049   0.750   0.000  0.00  0.00    -0.489 OA
ATOM      2  C   UNL     1       0.750   1.500   0.000  0.00  0.00    +0.277 C 
ENDBRANCH   3   1
TORSDOF 2