REMARK  Name = 292684
REMARK  7 active torsions:
REMARK  status: ('A' for Active; 'I' for Inactive)
REMARK    1  A    between atoms: C_6  and  N_14
REMARK    2  A    between atoms: N_9  and  N_10
REMARK    3  A    between atoms: N_9  and  C_15
REMARK    4  A    between atoms: S_12  and  C_16
REMARK    5  A    between atoms: S_12  and  C_17
REMARK    6  A    between atoms: C_15  and  C_16
REMARK    7  A    between atoms: C_17  and  C_18
REMARK                            x       y       z     vdW  Elec       q    Type
REMARK                         _______ _______ _______ _____ _____    ______ ____
ROOT
ATOM      5  N   UNL     1      -2.150   5.571   0.000  0.00  0.00    -0.295 N 
ATOM      6  H   UNL     1      -1.657   4.719   0.000  0.00  0.00    +0.151 HD
ATOM      7  C   UNL     1      -1.400   6.870   0.000  0.00  0.00    +0.324 C 
ATOM      8  N   UNL     1       0.101   6.870   0.000  0.00  0.00    -0.140 N 
ATOM     17  O   UNL     1      -2.150   8.169   0.000  0.00  0.00    -0.251 OA
ENDROOT
BRANCH   5   4
ATOM      1  C   UNL     1      -6.649   5.571   0.000  0.00  0.00    +0.000 C 
ATOM      2  C   UNL     1      -5.899   4.272   0.000  0.00  0.00    +0.002 C 
ATOM      3  C   UNL     1      -4.399   4.272   0.000  0.00  0.00    +0.022 C 
ATOM      4  C   UNL     1      -3.650   5.571   0.000  0.00  0.00    +0.074 C 
ATOM     18  C   UNL     1      -4.399   6.870   0.000  0.00  0.00    +0.022 C 
ATOM     19  C   UNL     1      -5.899   6.870   0.000  0.00  0.00    +0.002 C 
ENDBRANCH   5   4
BRANCH   8  15
ATOM     15  N   UNL     1       0.851   5.571   0.000  0.00  0.00    +0.053 NA
ATOM     16  O   UNL     1       2.350   5.571   0.000  0.00  0.00    -0.126 OA
ENDBRANCH   8  15
BRANCH   8   9
ATOM      9  C   UNL     1       0.851   8.169   0.000  0.00  0.00    +0.150 C 
BRANCH   9  10
ATOM     10  C   UNL     1       0.101   9.468   0.000  0.00  0.00    +0.090 C 
BRANCH  10  11
ATOM     11  S   UNL     1       0.851  10.767   0.000  0.00  0.00    -0.158 S 
BRANCH  11  12
ATOM     12  C   UNL     1       0.101  12.066   0.000  0.00  0.00    +0.085 C 
BRANCH  12  13
ATOM     13  C   UNL     1      -1.400  12.066   0.000  0.00  0.00    +0.119 C 
ATOM     14 CL   UNL     1      -2.150  13.365   0.000  0.00  0.00    -0.125 Cl
ENDBRANCH  12  13
ENDBRANCH  11  12
ENDBRANCH  10  11
ENDBRANCH   9  10
ENDBRANCH   8   9
TORSDOF 7