REMARK  Name = 313981
REMARK  7 active torsions:
REMARK  status: ('A' for Active; 'I' for Inactive)
REMARK    1  A    between atoms: P_1  and  AU_2
REMARK    2  A    between atoms: P_1  and  C_3
REMARK    3  A    between atoms: P_1  and  C_4
REMARK    4  A    between atoms: P_1  and  C_5
REMARK    5  A    between atoms: C_3  and  C_7
REMARK    6  A    between atoms: C_4  and  C_8
REMARK    7  A    between atoms: C_5  and  C_9
REMARK                            x       y       z     vdW  Elec       q    Type
REMARK                         _______ _______ _______ _____ _____    ______ ____
ROOT
ATOM      1  P   UNL     1      -0.130  -0.225   0.000  0.00  0.00    +0.000 P 
ATOM      2  H   UNL     1      -1.429  -0.975   0.000  0.00  0.00    +0.000 HD
ENDROOT
BRANCH   1   3
ATOM      3  C   UNL     1       1.362  -0.382   0.000  0.00  0.00    +0.000 C 
ATOM      4  C   UNL     1       2.244   0.832   0.000  0.00  0.00    +0.000 C 
ENDBRANCH   1   3
BRANCH   1   5
ATOM      5  C   UNL     1       0.480   1.145   0.000  0.00  0.00    +0.000 C 
ATOM      6  C   UNL     1      -0.402   2.359   0.000  0.00  0.00    +0.000 C 
ENDBRANCH   1   5
BRANCH   1   7
ATOM      7  C   UNL     1      -1.245   0.779   0.000  0.00  0.00    +0.000 C 
ATOM      8  C   UNL     1      -2.671   0.315   0.000  0.00  0.00    +0.000 C 
ENDBRANCH   1   7
BRANCH   1   9
ATOM      9 AU   UNL     1       0.182  -1.692   0.000  0.00  0.00    +0.000 Au
ATOM     10 CL   UNL     1       1.609  -2.156   0.000  0.00  0.00    +0.000 Cl
ENDBRANCH   1   9
TORSDOF 4