REMARK  Name = 30916
REMARK  10 active torsions:
REMARK  status: ('A' for Active; 'I' for Inactive)
REMARK    1  A    between atoms: C_4  and  C_27
REMARK    2  A    between atoms: C_9  and  C_24
REMARK    3  A    between atoms: C_12  and  C_23
REMARK    4  A    between atoms: C_15  and  C_19
REMARK    5  A    between atoms: C_19  and  O_21
REMARK    6  A    between atoms: O_21  and  HG_22
REMARK    7  A    between atoms: HG_22  and  C_23
REMARK    8  A    between atoms: C_24  and  HG_25
REMARK    9  A    between atoms: HG_25  and  O_26
REMARK   10  A    between atoms: O_26  and  C_27
REMARK                            x       y       z     vdW  Elec       q    Type
REMARK                         _______ _______ _______ _____ _____    ______ ____
ROOT
ATOM      1  O   UNL     1      -7.419  -8.149   0.000  0.00  0.00    +0.000 OA
ATOM      2  C   UNL     1      -8.718  -8.899   0.000  0.00  0.00    +0.000 C 
ATOM      3  C   UNL     1      -8.718 -10.400   0.000  0.00  0.00    +0.000 C 
ATOM     15  O   UNL     1      -7.419 -11.150   0.000  0.00  0.00    +0.000 OA
ATOM     16  C   UNL     1      -6.120 -10.400   0.000  0.00  0.00    +0.000 C 
ATOM     17  C   UNL     1      -6.120  -8.899   0.000  0.00  0.00    +0.000 C 
ENDROOT
BRANCH   3   4
ATOM      4  C   UNL     1     -10.017 -11.150   0.000  0.00  0.00    +0.000 C 
BRANCH   4   5
ATOM      5 HG   UNL     1     -10.017 -12.650   0.000  0.00  0.00    +0.000 Hg
BRANCH   5   6
ATOM      6  O   UNL     1     -11.316 -13.400   0.000  0.00  0.00    +0.000 OA
BRANCH   6   7
ATOM      7  C   UNL     1     -12.615 -12.650   0.000  0.00  0.00    +0.000 C 
ATOM      8  O   UNL     1     -12.615 -11.150   0.000  0.00  0.00    +0.000 OA
BRANCH   7   9
ATOM      9  C   UNL     1     -13.914 -13.400   0.000  0.00  0.00    +0.000 A 
ATOM     10  C   UNL     1     -13.914 -14.900   0.000  0.00  0.00    +0.000 A 
ATOM     11  C   UNL     1     -15.213 -15.650   0.000  0.00  0.00    +0.000 A 
ATOM     12  C   UNL     1     -16.512 -14.900   0.000  0.00  0.00    +0.000 A 
ATOM     13  C   UNL     1     -16.512 -13.400   0.000  0.00  0.00    +0.000 A 
ATOM     14  C   UNL     1     -15.213 -12.650   0.000  0.00  0.00    +0.000 A 
ENDBRANCH   7   9
ENDBRANCH   6   7
ENDBRANCH   5   6
ENDBRANCH   4   5
ENDBRANCH   3   4
BRANCH  17  18
ATOM     18  C   UNL     1      -4.821  -8.149   0.000  0.00  0.00    +0.000 C 
BRANCH  18  19
ATOM     19 HG   UNL     1      -4.821  -6.649   0.000  0.00  0.00    +0.000 Hg
BRANCH  19  20
ATOM     20  O   UNL     1      -3.522  -5.899   0.000  0.00  0.00    +0.000 OA
BRANCH  20  21
ATOM     21  C   UNL     1      -3.522  -4.399   0.000  0.00  0.00    +0.000 C 
ATOM     22  O   UNL     1      -4.821  -3.650   0.000  0.00  0.00    +0.000 OA
BRANCH  21  23
ATOM     23  C   UNL     1      -2.223  -3.650   0.000  0.00  0.00    +0.000 A 
ATOM     24  C   UNL     1      -0.924  -4.399   0.000  0.00  0.00    +0.000 A 
ATOM     25  C   UNL     1       0.375  -3.650   0.000  0.00  0.00    +0.000 A 
ATOM     26  C   UNL     1       0.375  -2.150   0.000  0.00  0.00    +0.000 A 
ATOM     27  C   UNL     1      -0.924  -1.400   0.000  0.00  0.00    +0.000 A 
ATOM     28  C   UNL     1      -2.223  -2.150   0.000  0.00  0.00    +0.000 A 
ENDBRANCH  21  23
ENDBRANCH  20  21
ENDBRANCH  19  20
ENDBRANCH  18  19
ENDBRANCH  17  18
TORSDOF 10