REMARK  Name = 325319
REMARK  31 active torsions:
REMARK  status: ('A' for Active; 'I' for Inactive)
REMARK    1  A    between atoms: C_5  and  C_6
REMARK    2  A    between atoms: C_6  and  C_7
REMARK    3  A    between atoms: C_6  and  C_8
REMARK    4  A    between atoms: C_11  and  C_12
REMARK    5  A    between atoms: C_16  and  C_17
REMARK    6  A    between atoms: C_17  and  C_18
REMARK    7  A    between atoms: C_18  and  C_19
REMARK    8  A    between atoms: C_18  and  C_20
REMARK    9  A    between atoms: N_29  and  C_30
REMARK   10  A    between atoms: C_31  and  C_32
REMARK   11  A    between atoms: C_32  and  C_33
REMARK   12  A    between atoms: C_36  and  O_79
REMARK   13  A    between atoms: C_42  and  C_43
REMARK   14  A    between atoms: C_44  and  N_53
REMARK   15  A    between atoms: C_48  and  C_52
REMARK   16  A    between atoms: C_49  and  O_50
REMARK   17  A    between atoms: C_52  and  C_74
REMARK   18  A    between atoms: C_52  and  C_75
REMARK   19  A    between atoms: C_54  and  C_55
REMARK   20  A    between atoms: C_55  and  N_56
REMARK   21  A    between atoms: C_55  and  C_61
REMARK   22  A    between atoms: N_56  and  C_57
REMARK   23  A    between atoms: C_58  and  C_60
REMARK   24  A    between atoms: C_61  and  C_62
REMARK   25  A    between atoms: C_62  and  C_63
REMARK   26  A    between atoms: C_62  and  C_64
REMARK   27  A    between atoms: C_69  and  C_71
REMARK   28  A    between atoms: C_71  and  O_72
REMARK   29  A    between atoms: C_71  and  C_73
REMARK   30  A    between atoms: C_75  and  C_76
REMARK   31  A    between atoms: O_79  and  C_80
REMARK                            x       y       z     vdW  Elec       q    Type
REMARK                         _______ _______ _______ _____ _____    ______ ____
ROOT
ATOM      1  C   UNL     1      -6.621  -1.047   0.000  0.00  0.00    +0.310 C 
ATOM      2  O   UNL     1      -5.540  -2.087   0.000  0.00  0.00    -0.453 OA
ATOM      3  C   UNL     1      -4.219  -2.797   0.000  0.00  0.00    +0.245 C 
ATOM      4  C   UNL     1      -2.755  -3.125   0.000  0.00  0.00    +0.185 C 
ATOM      5  C   UNL     1      -1.257  -3.045   0.000  0.00  0.00    +0.142 C 
ATOM      6  C   UNL     1       0.164  -2.565   0.000  0.00  0.00    +0.224 C 
ATOM      7  N   UNL     1       1.402  -1.718   0.000  0.00  0.00    -0.303 N 
ATOM      8  H   UNL     1       2.063  -2.448   0.000  0.00  0.00    +0.149 HD
ATOM      9  C   UNL     1       2.366  -0.569   0.000  0.00  0.00    +0.159 C 
ATOM     10  C   UNL     1       2.985   0.797   0.000  0.00  0.00    +0.237 C 
ATOM     11  O   UNL     1       4.423   0.370   0.000  0.00  0.00    -0.274 OA
ATOM     12  N   UNL     1       3.212   2.280   0.000  0.00  0.00    -0.288 N 
ATOM     13  C   UNL     1       3.030   3.769   0.000  0.00  0.00    +0.162 C 
ATOM     14  C   UNL     1       2.454   5.154   0.000  0.00  0.00    +0.237 C 
ATOM     15  N   UNL     1       1.525   6.332   0.000  0.00  0.00    -0.289 N 
ATOM     16  C   UNL     1       0.313   7.215   0.000  0.00  0.00    +0.189 C 
ATOM     17  C   UNL     1      -1.093   7.739   0.000  0.00  0.00    +0.328 C 
ATOM     18  O   UNL     1      -2.588   7.864   0.000  0.00  0.00    -0.458 OA
ATOM     19  C   UNL     1      -4.061   7.581   0.000  0.00  0.00    +0.203 C 
ATOM     20  C   UNL     1      -5.403   6.912   0.000  0.00  0.00    +0.200 C 
ATOM     45  C   UNL     1      -6.515   5.905   0.000  0.00  0.00    +0.237 C 
ATOM     46  N   UNL     1      -7.314   4.635   0.000  0.00  0.00    -0.308 N 
ATOM     47  H   UNL     1      -8.211   5.041   0.000  0.00  0.00    +0.149 HD
ATOM     48  C   UNL     1      -7.740   3.197   0.000  0.00  0.00    +0.105 C 
ATOM     53  C   UNL     1      -7.763   1.697   0.000  0.00  0.00    +0.146 C 
ATOM     56  O   UNL     1      -7.664   6.869   0.000  0.00  0.00    -0.274 OA
ATOM     57  C   UNL     1      -4.542   9.002   0.000  0.00  0.00    +0.054 C 
ATOM     58  O   UNL     1      -0.765   9.203   0.000  0.00  0.00    -0.249 OA
ATOM     68  C   UNL     1       2.565   7.412   0.000  0.00  0.00    +0.133 C 
ATOM     69  O   UNL     1       3.747   5.914   0.000  0.00  0.00    -0.274 OA
ATOM     70  C   UNL     1       4.390   4.402   0.000  0.00  0.00    +0.033 C 
ATOM     71  C   UNL     1       5.412   3.304   0.000  0.00  0.00    +0.021 C 
ATOM     72  C   UNL     1       4.684   1.992   0.000  0.00  0.00    +0.109 C 
ATOM     77  O   UNL     1       0.833  -3.907   0.000  0.00  0.00    -0.275 OA
ATOM     78  C   UNL     1      -0.975  -4.518   0.000  0.00  0.00    +0.025 C 
ATOM     79  O   UNL     1      -2.881  -4.620   0.000  0.00  0.00    -0.293 OA
ATOM     83  O   UNL     1      -7.799  -1.975   0.000  0.00  0.00    -0.251 OA
ATOM     84  C   UNL     1      -7.380   0.247   0.000  0.00  0.00    +0.153 C 
ENDROOT
BRANCH  20  21
ATOM     21  N   UNL     1      -6.452   7.984   0.000  0.00  0.00    -0.299 N 
ATOM     22  H   UNL     1      -7.405   7.740   0.000  0.00  0.00    +0.150 HD
ATOM     23  C   UNL     1      -6.047   9.429   0.000  0.00  0.00    +0.234 C 
ATOM     24  O   UNL     1      -4.593   9.800   0.000  0.00  0.00    -0.274 OA
BRANCH  23  25
ATOM     25  C   UNL     1      -7.095  10.502   0.000  0.00  0.00    +0.162 C 
BRANCH  25  30
ATOM     30  N   UNL     1      -8.548  10.130   0.000  0.00  0.00    -0.291 N 
ATOM     31  C   UNL     1      -9.597  11.203   0.000  0.00  0.00    +0.236 C 
ATOM     43  O   UNL     1      -9.192  12.647   0.000  0.00  0.00    -0.274 OA
ATOM     44  C   UNL     1      -8.953   8.686   0.000  0.00  0.00    +0.133 C 
BRANCH  31  32
ATOM     32  C   UNL     1     -11.050  10.831   0.000  0.00  0.00    +0.162 C 
ATOM     33  N   UNL     1     -12.205  11.788   0.000  0.00  0.00    -0.288 N 
ATOM     34  C   UNL     1     -12.109  13.285   0.000  0.00  0.00    +0.245 C 
ATOM     39  O   UNL     1     -10.765  13.951   0.000  0.00  0.00    -0.273 OA
ATOM     40  C   UNL     1     -13.472  10.986   0.000  0.00  0.00    +0.109 C 
ATOM     41  C   UNL     1     -13.101   9.533   0.000  0.00  0.00    +0.021 C 
ATOM     42  C   UNL     1     -11.604   9.437   0.000  0.00  0.00    +0.033 C 
BRANCH  34  35
ATOM     35  C   UNL     1     -13.358  14.117   0.000  0.00  0.00    +0.197 C 
ATOM     36  C   UNL     1     -14.702  13.451   0.000  0.00  0.00    +0.047 C 
BRANCH  35  37
ATOM     37  O   UNL     1     -13.262  15.614   0.000  0.00  0.00    -0.383 OA
ATOM     38  H   UNL     1     -12.393  16.044   0.000  0.00  0.00    +0.210 HD
ENDBRANCH  35  37
ENDBRANCH  34  35
ENDBRANCH  31  32
ENDBRANCH  25  30
BRANCH  25  26
ATOM     26  C   UNL     1      -6.690  11.946   0.000  0.00  0.00    +0.035 C 
BRANCH  26  27
ATOM     27  C   UNL     1      -5.237  12.318   0.000  0.00  0.00    -0.015 C 
ATOM     28  C   UNL     1      -4.189  11.245   0.000  0.00  0.00    +0.007 C 
ATOM     29  C   UNL     1      -4.832  13.762   0.000  0.00  0.00    +0.007 C 
ENDBRANCH  26  27
ENDBRANCH  25  26
ENDBRANCH  23  25
ENDBRANCH  20  21
BRANCH   3  80
ATOM     80  C   UNL     1      -4.743  -4.203   0.000  0.00  0.00    +0.031 C 
ATOM     81  C   UNL     1      -3.788  -5.359   0.000  0.00  0.00    +0.011 C 
ATOM     82  C   UNL     1      -6.222  -4.452   0.000  0.00  0.00    +0.011 C 
ENDBRANCH   3  80
BRANCH  48  49
ATOM     49  C   UNL     1      -8.867   4.187   0.000  0.00  0.00    +0.008 C 
ATOM     52  C   UNL     1      -9.857   3.061   0.000  0.00  0.00    +0.009 C 
BRANCH  49  50
ATOM     50  C   UNL     1      -9.994   5.177   0.000  0.00  0.00    +0.002 C 
ATOM     51  C   UNL     1     -11.415   4.697   0.000  0.00  0.00    +0.004 C 
ENDBRANCH  49  50
ENDBRANCH  48  49
BRANCH  53  54
ATOM     54  O   UNL     1      -9.115   2.347   0.000  0.00  0.00    -0.389 OA
ATOM     55  H   UNL     1      -9.189   3.314   0.000  0.00  0.00    +0.210 HD
ENDBRANCH  53  54
BRANCH  16  59
ATOM     59  C   UNL     1       0.783   8.640   0.000  0.00  0.00    +0.069 C 
BRANCH  59  60
ATOM     60  C   UNL     1       2.251   8.945   0.000  0.00  0.00    -0.045 A 
ATOM     61  C   UNL     1       3.250   7.825   0.000  0.00  0.00    +0.007 A 
ATOM     62  C   UNL     1       4.719   8.130   0.000  0.00  0.00    +0.046 A 
ATOM     63  C   UNL     1       5.189   9.555   0.000  0.00  0.00    +0.120 A 
ATOM     66  C   UNL     1       4.190  10.674   0.000  0.00  0.00    +0.046 A 
ATOM     67  C   UNL     1       2.721  10.369   0.000  0.00  0.00    +0.007 A 
BRANCH  63  64
ATOM     64  O   UNL     1       6.657   9.860   0.000  0.00  0.00    -0.495 OA
ATOM     65  C   UNL     1       7.656   8.741   0.000  0.00  0.00    +0.277 C 
ENDBRANCH  63  64
ENDBRANCH  59  60
ENDBRANCH  16  59
BRANCH   9  73
ATOM     73  C   UNL     1       3.636  -1.368   0.000  0.00  0.00    +0.034 C 
BRANCH  73  74
ATOM     74  C   UNL     1       3.579  -2.867   0.000  0.00  0.00    -0.015 C 
ATOM     75  C   UNL     1       4.848  -3.666   0.000  0.00  0.00    +0.007 C 
ATOM     76  C   UNL     1       2.252  -3.567   0.000  0.00  0.00    +0.007 C 
ENDBRANCH  73  74
ENDBRANCH   9  73
TORSDOF 17