REMARK  Name = 326397
REMARK  0 active torsions:
REMARK  status: ('A' for Active; 'I' for Inactive)
REMARK                            x       y       z     vdW  Elec       q    Type
REMARK                         _______ _______ _______ _____ _____    ______ ____
ROOT
ATOM      1 CL   UNL     1       0.750   4.890   0.000  0.00  0.00    -0.082 Cl
ATOM      2  C   UNL     1       2.049   4.140   0.000  0.00  0.00    +0.061 A 
ATOM      3  C   UNL     1       2.049   2.640   0.000  0.00  0.00    +0.061 A 
ATOM      4  C   UNL     1       3.348   1.890   0.000  0.00  0.00    +0.049 A 
ATOM      5  C   UNL     1       4.647   2.640   0.000  0.00  0.00    +0.067 A 
ATOM      6  N   UNL     1       6.074   2.177   0.000  0.00  0.00    -0.344 N 
ATOM      7  H   UNL     1       6.537   0.750   0.000  0.00  0.00    +0.167 HD
ATOM      8  C   UNL     1       6.955   3.390   0.000  0.00  0.00    +0.197 A 
ATOM      9  N   UNL     1       6.074   4.604   0.000  0.00  0.00    -0.236 NA
ATOM     10  C   UNL     1       4.647   4.140   0.000  0.00  0.00    +0.090 A 
ATOM     11 CL   UNL     1       0.750   1.890   0.000  0.00  0.00    -0.082 Cl
ATOM     12  C   UNL     1       3.348   4.890   0.000  0.00  0.00    +0.051 A 
ENDROOT
TORSDOF 0