REMARK  Name = 302979
REMARK  7 active torsions:
REMARK  status: ('A' for Active; 'I' for Inactive)
REMARK    1  A    between atoms: O_1  and  C_3
REMARK    2  A    between atoms: O_1  and  C_20
REMARK    3  A    between atoms: C_5  and  C_23
REMARK    4  A    between atoms: C_5  and  C_25
REMARK    5  A    between atoms: C_6  and  C_24
REMARK    6  A    between atoms: C_12  and  O_26
REMARK    7  A    between atoms: C_20  and  C_22
REMARK                            x       y       z     vdW  Elec       q    Type
REMARK                         _______ _______ _______ _____ _____    ______ ____
ROOT
ATOM      5  C   UNL     1      -3.240  -0.725   0.000  0.00  0.00    +0.182 C 
ATOM      6  C   UNL     1      -2.025  -1.605   0.000  0.00  0.00    +0.006 C 
ATOM      7  C   UNL     1      -0.810  -2.485   0.000  0.00  0.00    +0.015 C 
ATOM      8  C   UNL     1      -2.905  -2.820   0.000  0.00  0.00    +0.015 C 
ATOM      9  C   UNL     1      -0.656  -0.993   0.000  0.00  0.00    +0.014 C 
ATOM     10  C   UNL     1       0.414  -2.044   0.000  0.00  0.00    +0.041 C 
ATOM     11  C   UNL     1       1.904  -1.862   0.000  0.00  0.00    +0.148 C 
ATOM     14  C   UNL     1       2.690  -0.585   0.000  0.00  0.00    +0.024 C 
ATOM     15  C   UNL     1       4.243  -0.033   0.000  0.00  0.00    +0.187 C 
ATOM     16  O   UNL     1       5.401  -0.986   0.000  0.00  0.00    -0.287 OA
ATOM     17  C   UNL     1       4.465   1.451   0.000  0.00  0.00    -0.001 C 
ATOM     18  C   UNL     1       5.771   2.188   0.000  0.00  0.00    +0.016 C 
ATOM     19  C   UNL     1       3.080   2.028   0.000  0.00  0.00    +0.046 C 
ATOM     20  C   UNL     1       2.215   3.253   0.000  0.00  0.00    +0.020 C 
ATOM     21  C   UNL     1       0.782   2.809   0.000  0.00  0.00    +0.076 C 
ATOM     22  C   UNL     1       0.762   1.309   0.000  0.00  0.00    +0.140 C 
ATOM     23  O   UNL     1       2.073   0.580   0.000  0.00  0.00    -0.297 OA
ATOM     24  C   UNL     1       2.182   0.826   0.000  0.00  0.00    -0.009 C 
ATOM     25  C   UNL     1      -0.501   0.500   0.000  0.00  0.00    +0.030 C 
ATOM     26  C   UNL     1      -0.459   1.999   0.000  0.00  0.00    +0.019 C 
ATOM     27  C   UNL     1      -1.716   1.379   0.000  0.00  0.00    +0.018 C 
ATOM     28  C   UNL     1      -3.085   0.767   0.000  0.00  0.00    +0.046 C 
ENDROOT
BRANCH  11  12
ATOM     12  O   UNL     1       2.713  -3.125   0.000  0.00  0.00    -0.387 OA
ATOM     13  H   UNL     1       2.267  -3.987   0.000  0.00  0.00    +0.210 HD
ENDBRANCH  11  12
BRANCH   5   1
ATOM      1  O   UNL     1      -4.609  -1.337   0.000  0.00  0.00    -0.461 OA
BRANCH   1   2
ATOM      2  C   UNL     1      -5.824  -0.457   0.000  0.00  0.00    +0.304 C 
ATOM      3  C   UNL     1      -7.194  -1.069   0.000  0.00  0.00    +0.136 C 
ATOM      4  O   UNL     1      -5.670   1.035   0.000  0.00  0.00    -0.251 OA
ENDBRANCH   1   2
ENDBRANCH   5   1
TORSDOF 3