REMARK  Name = 327697
REMARK  5 active torsions:
REMARK  status: ('A' for Active; 'I' for Inactive)
REMARK    1  A    between atoms: N_13  and  N_15
REMARK    2  A    between atoms: C_16  and  C_23
REMARK    3  A    between atoms: C_21  and  N_22
REMARK    4  A    between atoms: N_22  and  C_24
REMARK    5  A    between atoms: N_22  and  C_25
REMARK                            x       y       z     vdW  Elec       q    Type
REMARK                         _______ _______ _______ _____ _____    ______ ____
ROOT
ATOM      1 CL   UNL     1       4.048   4.346   0.000  0.00  0.00    -0.083 Cl
ATOM      2  C   UNL     1       2.748   3.596   0.000  0.00  0.00    +0.043 A 
ATOM      3  C   UNL     1       1.450   4.346   0.000  0.00  0.00    +0.042 A 
ATOM      4  C   UNL     1       0.150   3.596   0.000  0.00  0.00    +0.064 A 
ATOM      5 CL   UNL     1      -1.149   4.346   0.000  0.00  0.00    -0.082 Cl
ATOM      6  C   UNL     1       0.150   2.096   0.000  0.00  0.00    +0.062 A 
ATOM      7  N   UNL     1      -0.964   1.093   0.000  0.00  0.00    -0.278 N 
ATOM      8  H   UNL     1      -2.432   1.405   0.000  0.00  0.00    +0.155 HD
ATOM      9  C   UNL     1      -0.354  -0.278   0.000  0.00  0.00    +0.269 C 
ATOM     10  O   UNL     1      -1.104  -1.577   0.000  0.00  0.00    -0.268 OA
ATOM     11  C   UNL     1       1.138  -0.121   0.000  0.00  0.00    +0.157 C 
ATOM     12  N   UNL     1       2.141  -1.235   0.000  0.00  0.00    -0.144 NA
ATOM     24  C   UNL     1       1.450   1.347   0.000  0.00  0.00    +0.031 A 
ATOM     25  C   UNL     1       2.748   2.096   0.000  0.00  0.00    +0.032 A 
ENDROOT
BRANCH  12  13
ATOM     13  N   UNL     1       1.678  -2.662   0.000  0.00  0.00    -0.156 NA
ATOM     14  C   UNL     1       2.682  -3.777   0.000  0.00  0.00    +0.142 C 
BRANCH  14  15
ATOM     15  C   UNL     1       2.218  -5.203   0.000  0.00  0.00    -0.005 A 
ATOM     16  C   UNL     1       3.222  -6.318   0.000  0.00  0.00    +0.011 A 
ATOM     17  C   UNL     1       2.758  -7.745   0.000  0.00  0.00    +0.024 A 
ATOM     18  C   UNL     1       1.291  -8.056   0.000  0.00  0.00    +0.029 A 
ATOM     22  C   UNL     1       0.287  -6.942   0.000  0.00  0.00    +0.024 A 
ATOM     23  C   UNL     1       0.751  -5.515   0.000  0.00  0.00    +0.011 A 
BRANCH  18  19
ATOM     19  N   UNL     1       0.827  -9.483   0.000  0.00  0.00    -0.336 N 
ATOM     20  C   UNL     1       1.831 -10.598   0.000  0.00  0.00    +0.129 C 
ATOM     21  C   UNL     1      -0.640  -9.795   0.000  0.00  0.00    +0.129 C 
ENDBRANCH  18  19
ENDBRANCH  14  15
ENDBRANCH  12  13
TORSDOF 3