REMARK  Name = 293927
REMARK  1 active torsions:
REMARK  status: ('A' for Active; 'I' for Inactive)
REMARK    1  A    between atoms: C_17  and  C_18
REMARK                            x       y       z     vdW  Elec       q    Type
REMARK                         _______ _______ _______ _____ _____    ______ ____
ROOT
ATOM      1  C   UNL     1       0.750   3.000   0.000  0.00  0.00    +0.001 A 
ATOM      2  C   UNL     1       0.750   1.500   0.000  0.00  0.00    +0.004 A 
ATOM      3  C   UNL     1       2.049   0.750   0.000  0.00  0.00    +0.047 A 
ATOM      4  C   UNL     1       3.348   1.500   0.000  0.00  0.00    +0.143 A 
ATOM      5  O   UNL     1       4.647   0.750   0.000  0.00  0.00    -0.422 OA
ATOM      6  C   UNL     1       5.946   1.500   0.000  0.00  0.00    +0.349 C 
ATOM      7  O   UNL     1       7.245   0.750   0.000  0.00  0.00    -0.244 OA
ATOM      8  C   UNL     1       5.946   3.000   0.000  0.00  0.00    +0.121 C 
ATOM      9  C   UNL     1       7.245   3.750   0.000  0.00  0.00    +0.038 C 
ATOM     10  C   UNL     1       8.616   3.140   0.000  0.00  0.00    +0.032 C 
ATOM     11  C   UNL     1       9.619   4.255   0.000  0.00  0.00    +0.027 C 
ATOM     18  S   UNL     1       8.869   5.554   0.000  0.00  0.00    -0.051 S 
ATOM     19  S   UNL     1       7.402   5.242   0.000  0.00  0.00    -0.051 S 
ATOM     20  C   UNL     1       4.647   3.750   0.000  0.00  0.00    +0.205 C 
ATOM     21  O   UNL     1       4.647   5.250   0.000  0.00  0.00    -0.286 OA
ATOM     22  C   UNL     1       3.348   3.000   0.000  0.00  0.00    +0.065 A 
ATOM     23  C   UNL     1       2.049   3.750   0.000  0.00  0.00    +0.015 A 
ENDROOT
BRANCH  11  12
ATOM     12  C   UNL     1      11.111   4.098   0.000  0.00  0.00    -0.011 A 
ATOM     13  C   UNL     1      11.721   2.728   0.000  0.00  0.00    +0.009 A 
ATOM     14  C   UNL     1      13.213   2.571   0.000  0.00  0.00    +0.001 A 
ATOM     15  C   UNL     1      14.095   3.784   0.000  0.00  0.00    +0.000 A 
ATOM     16  C   UNL     1      13.485   5.155   0.000  0.00  0.00    +0.001 A 
ATOM     17  C   UNL     1      11.993   5.311   0.000  0.00  0.00    +0.009 A 
ENDBRANCH  11  12
TORSDOF 1