REMARK  Name = 63001
REMARK  5 active torsions:
REMARK  status: ('A' for Active; 'I' for Inactive)
REMARK    1  A    between atoms: C_5  and  C_18
REMARK    2  A    between atoms: C_9  and  C_15
REMARK    3  A    between atoms: C_11  and  O_13
REMARK    4  A    between atoms: O_13  and  C_14
REMARK    5  A    between atoms: C_15  and  C_16
REMARK                            x       y       z     vdW  Elec       q    Type
REMARK                         _______ _______ _______ _____ _____    ______ ____
ROOT
ATOM      6  C   UNL     1       4.821   8.149   0.000  0.00  0.00    +0.029 C 
ATOM      7  C   UNL     1       4.821   6.649   0.000  0.00  0.00    +0.059 C 
ENDROOT
BRANCH   6   5
ATOM      1  N   UNL     1       7.419  11.150   0.000  0.00  0.00    -0.263 NA
ATOM      2  C   UNL     1       8.718  10.400   0.000  0.00  0.00    +0.111 A 
ATOM      3  C   UNL     1       8.718   8.899   0.000  0.00  0.00    +0.020 A 
ATOM      4  C   UNL     1       7.419   8.149   0.000  0.00  0.00    +0.011 A 
ATOM      5  C   UNL     1       6.120   8.899   0.000  0.00  0.00    -0.006 A 
ATOM     18  C   UNL     1       6.120  10.400   0.000  0.00  0.00    +0.118 A 
ENDBRANCH   6   5
BRANCH   7  10
ATOM     10  C   UNL     1       3.522   5.899   0.000  0.00  0.00    -0.007 A 
ATOM     11  C   UNL     1       3.522   4.399   0.000  0.00  0.00    +0.013 A 
ATOM     12  C   UNL     1       2.223   3.650   0.000  0.00  0.00    +0.046 A 
ATOM     13  C   UNL     1       0.924   4.399   0.000  0.00  0.00    +0.120 A 
ATOM     16  C   UNL     1       0.924   5.899   0.000  0.00  0.00    +0.046 A 
ATOM     17  C   UNL     1       2.223   6.649   0.000  0.00  0.00    +0.013 A 
BRANCH  13  14
ATOM     14  O   UNL     1      -0.375   3.650   0.000  0.00  0.00    -0.495 OA
ATOM     15  C   UNL     1      -1.674   4.399   0.000  0.00  0.00    +0.277 C 
ENDBRANCH  13  14
ENDBRANCH   7  10
BRANCH   7   8
ATOM      8  C   UNL     1       6.120   5.899   0.000  0.00  0.00    +0.100 C 
ATOM      9  N   UNL     1       7.419   5.149   0.000  0.00  0.00    -0.191 NA
ENDBRANCH   7   8
TORSDOF 4