REMARK  Name = 631160
REMARK  6 active torsions:
REMARK  status: ('A' for Active; 'I' for Inactive)
REMARK    1  A    between atoms: C_3  and  C_16
REMARK    2  A    between atoms: N_4  and  C_22
REMARK    3  A    between atoms: C_5  and  S_6
REMARK    4  A    between atoms: S_6  and  C_7
REMARK    5  A    between atoms: N_8  and  C_15
REMARK    6  A    between atoms: C_11  and  N_12
REMARK                            x       y       z     vdW  Elec       q    Type
REMARK                         _______ _______ _______ _____ _____    ______ ____
ROOT
ATOM      1  N   UNL     1       4.164   7.904   0.000  0.00  0.00    -0.122 NA
ATOM      2  C   UNL     1       4.914   6.605   0.000  0.00  0.00    +0.198 A 
ATOM     13  N   UNL     1       3.910   5.491   0.000  0.00  0.00    -0.305 N 
ATOM     14  C   UNL     1       4.222   4.023   0.000  0.00  0.00    +0.153 C 
ATOM     15  C   UNL     1       2.540   6.101   0.000  0.00  0.00    +0.166 A 
ATOM     22  N   UNL     1       2.697   7.593   0.000  0.00  0.00    -0.128 NA
ENDROOT
BRANCH  15  16
ATOM     16  C   UNL     1       1.241   5.351   0.000  0.00  0.00    +0.037 A 
ATOM     17  C   UNL     1       1.241   3.851   0.000  0.00  0.00    +0.122 A 
ATOM     18  N   UNL     1      -0.058   3.101   0.000  0.00  0.00    -0.263 NA
ATOM     19  C   UNL     1      -1.357   3.851   0.000  0.00  0.00    +0.111 A 
ATOM     20  C   UNL     1      -1.357   5.351   0.000  0.00  0.00    +0.020 A 
ATOM     21  C   UNL     1      -0.058   6.101   0.000  0.00  0.00    +0.014 A 
ENDBRANCH  15  16
BRANCH   2   3
ATOM      3  S   UNL     1       6.406   6.449   0.000  0.00  0.00    -0.024 S 
BRANCH   3   4
ATOM      4  C   UNL     1       7.063   7.797   0.000  0.00  0.00    +0.184 A 
ATOM      5  C   UNL     1       8.540   8.057   0.000  0.00  0.00    +0.399 A 
ATOM      9  N   UNL     1       8.749   9.543   0.000  0.00  0.00    -0.170 NA
ATOM     10  C   UNL     1       7.401  10.200   0.000  0.00  0.00    +0.206 A 
ATOM     11  N   UNL     1       6.359   9.121   0.000  0.00  0.00    -0.322 N 
ATOM     12  C   UNL     1       4.874   9.330   0.000  0.00  0.00    +0.151 C 
BRANCH   5   6
ATOM      6  N   UNL     1       9.620   7.015   0.000  0.00  0.00    +0.103 N 
ATOM      7  O   UNL     1      11.061   7.429   0.000  0.00  0.00    +0.043 OA
ATOM      8  O   UNL     1       9.257   5.560   0.000  0.00  0.00    -0.575 OA
ENDBRANCH   5   6
ENDBRANCH   3   4
ENDBRANCH   2   3
TORSDOF 4