REMARK  Name = 645330
REMARK  2 active torsions:
REMARK  status: ('A' for Active; 'I' for Inactive)
REMARK    1  A    between atoms: C_3  and  C_16
REMARK    2  A    between atoms: N_9  and  C_17
REMARK                            x       y       z     vdW  Elec       q    Type
REMARK                         _______ _______ _______ _____ _____    ______ ____
ROOT
ATOM      1  C   UNL     1       1.200   4.242   0.000  0.00  0.00    +0.002 A 
ATOM      2  C   UNL     1       2.499   4.992   0.000  0.00  0.00    +0.026 A 
ATOM      3  C   UNL     1       3.798   4.242   0.000  0.00  0.00    +0.050 A 
ATOM      4  N   UNL     1       5.225   4.705   0.000  0.00  0.00    -0.342 N 
ATOM      5  C   UNL     1       5.688   6.132   0.000  0.00  0.00    +0.149 C 
ATOM      6  C   UNL     1       6.106   3.491   0.000  0.00  0.00    +0.061 A 
ATOM      7  C   UNL     1       7.598   3.335   0.000  0.00  0.00    +0.056 A 
ATOM      8  C   UNL     1       8.480   4.548   0.000  0.00  0.00    +0.189 C 
ATOM      9  C   UNL     1       9.972   4.391   0.000  0.00  0.00    +0.055 C 
ATOM     10  C   UNL     1      10.582   3.021   0.000  0.00  0.00    +0.055 C 
ATOM     11  C   UNL     1       9.700   1.808   0.000  0.00  0.00    +0.187 C 
ATOM     12  O   UNL     1      10.310   0.437   0.000  0.00  0.00    -0.287 OA
ATOM     13  O   UNL     1       7.870   5.918   0.000  0.00  0.00    -0.287 OA
ATOM     14  C   UNL     1       8.208   1.964   0.000  0.00  0.00    +0.034 A 
ATOM     15  C   UNL     1       7.327   0.751   0.000  0.00  0.00    +0.013 A 
ATOM     16  C   UNL     1       5.835   0.908   0.000  0.00  0.00    +0.011 A 
ATOM     17  C   UNL     1       5.225   2.278   0.000  0.00  0.00    +0.009 A 
ATOM     18  C   UNL     1       3.798   2.741   0.000  0.00  0.00    +0.011 A 
ATOM     19  C   UNL     1       2.499   1.992   0.000  0.00  0.00    -0.041 A 
ATOM     20  C   UNL     1       2.499   0.491   0.000  0.00  0.00    +0.044 C 
ATOM     21  C   UNL     1       1.200   2.741   0.000  0.00  0.00    +0.004 A 
ENDROOT
TORSDOF 0