REMARK  Name = 62685
REMARK  5 active torsions:
REMARK  status: ('A' for Active; 'I' for Inactive)
REMARK    1  A    between atoms: N_3  and  C_11
REMARK    2  A    between atoms: C_8  and  C_19
REMARK    3  A    between atoms: C_13  and  S_15
REMARK    4  A    between atoms: S_15  and  O_18
REMARK    5  A    between atoms: C_19  and  O_21
REMARK                            x       y       z     vdW  Elec       q    Type
REMARK                         _______ _______ _______ _____ _____    ______ ____
ROOT
ATOM      1 CL   UNL     1      -8.387  -5.757   0.000  0.00  0.00    -0.081 Cl
ATOM      2  C   UNL     1      -7.088  -6.507   0.000  0.00  0.00    +0.070 A 
ATOM      3  C   UNL     1      -7.088  -8.007   0.000  0.00  0.00    +0.137 A 
ATOM      9  C   UNL     1      -5.789  -8.757   0.000  0.00  0.00    +0.053 A 
ATOM     10  C   UNL     1      -4.490  -8.007   0.000  0.00  0.00    +0.066 A 
ATOM     11  C   UNL     1      -4.490  -6.507   0.000  0.00  0.00    +0.080 A 
ATOM     22 CL   UNL     1      -3.191  -8.757   0.000  0.00  0.00    -0.081 Cl
ATOM     23  C   UNL     1      -5.789  -5.757   0.000  0.00  0.00    +0.049 A 
ENDROOT
BRANCH  11  12
ATOM     12  N   UNL     1      -3.191  -5.757   0.000  0.00  0.00    -0.159 N 
ATOM     13  C   UNL     1      -3.034  -4.265   0.000  0.00  0.00    +0.245 C 
ATOM     14  C   UNL     1      -1.567  -3.953   0.000  0.00  0.00    +0.162 C 
ATOM     15  C   UNL     1      -0.817  -5.252   0.000  0.00  0.00    +0.152 C 
ATOM     20  O   UNL     1      -4.149  -3.261   0.000  0.00  0.00    -0.273 OA
ATOM     21  N   UNL     1      -1.821  -6.367   0.000  0.00  0.00    -0.170 NA
BRANCH  15  16
ATOM     16  C   UNL     1       0.675  -5.409   0.000  0.00  0.00    +0.353 C 
ATOM     19  O   UNL     1       1.556  -4.196   0.000  0.00  0.00    -0.244 OA
BRANCH  16  17
ATOM     17  O   UNL     1       1.285  -6.779   0.000  0.00  0.00    -0.476 OA
ATOM     18  H   UNL     1       0.734  -7.538   0.000  0.00  0.00    +0.295 HD
ENDBRANCH  16  17
ENDBRANCH  15  16
ENDBRANCH  11  12
BRANCH   3   4
ATOM      4  S   UNL     1      -8.387  -8.757   0.000  0.00  0.00    +0.111 S 
ATOM      7  O   UNL     1      -9.686  -9.507   0.000  0.00  0.00    -0.142 OA
ATOM      8  O   UNL     1      -9.137  -7.458   0.000  0.00  0.00    -0.142 OA
BRANCH   4   5
ATOM      5  O   UNL     1      -7.637 -10.056   0.000  0.00  0.00    -0.250 OA
ATOM      6  H   UNL     1      -8.122 -10.896   0.000  0.00  0.00    +0.245 HD
ENDBRANCH   4   5
ENDBRANCH   3   4
TORSDOF 5