REMARK  Name = 62840
REMARK  5 active torsions:
REMARK  status: ('A' for Active; 'I' for Inactive)
REMARK    1  A    between atoms: C_3  and  N_7
REMARK    2  A    between atoms: N_7  and  C_8
REMARK    3  A    between atoms: C_8  and  C_9
REMARK    4  A    between atoms: C_9  and  C_10
REMARK    5  A    between atoms: C_10  and  O_12
REMARK                            x       y       z     vdW  Elec       q    Type
REMARK                         _______ _______ _______ _____ _____    ______ ____
ROOT
ATOM      3  N   UNL     1      -5.946  -0.750   0.000  0.00  0.00    -0.313 NA
ATOM      4  H   UNL     1      -5.946   0.270   0.000  0.00  0.00    +0.122 HD
ENDROOT
BRANCH   3   2
ATOM      1  C   UNL     1      -8.544  -0.750   0.000  0.00  0.00    +0.019 C 
ATOM      2  C   UNL     1      -7.245  -1.500   0.000  0.00  0.00    +0.054 C 
ATOM     11  C   UNL     1      -7.245  -3.000   0.000  0.00  0.00    +0.019 C 
ATOM     12  C   UNL     1      -8.544  -3.750   0.000  0.00  0.00    +0.002 C 
ATOM     13  C   UNL     1      -9.843  -3.000   0.000  0.00  0.00    +0.000 C 
ATOM     14  C   UNL     1      -9.843  -1.500   0.000  0.00  0.00    +0.002 C 
ENDBRANCH   3   2
BRANCH   3   5
ATOM      5  C   UNL     1      -4.647  -1.500   0.000  0.00  0.00    +0.092 C 
BRANCH   5   6
ATOM      6  C   UNL     1      -3.348  -0.750   0.000  0.00  0.00    +0.135 C 
BRANCH   6   7
ATOM      7  C   UNL     1      -2.049  -1.500   0.000  0.00  0.00    +0.306 C 
ATOM     10  O   UNL     1      -0.750  -0.750   0.000  0.00  0.00    -0.251 OA
BRANCH   7   8
ATOM      8  O   UNL     1      -2.049  -3.000   0.000  0.00  0.00    -0.481 OA
ATOM      9  H   UNL     1      -2.860  -3.469   0.000  0.00  0.00    +0.295 HD
ENDBRANCH   7   8
ENDBRANCH   6   7
ENDBRANCH   5   6
ENDBRANCH   3   5
TORSDOF 5