REMARK  Name = 64672
REMARK  7 active torsions:
REMARK  status: ('A' for Active; 'I' for Inactive)
REMARK    1  A    between atoms: N_2  and  C_20
REMARK    2  A    between atoms: N_4  and  C_21
REMARK    3  A    between atoms: C_13  and  O_26
REMARK    4  A    between atoms: C_14  and  C_24
REMARK    5  A    between atoms: C_15  and  O_25
REMARK    6  A    between atoms: N_22  and  N_23
REMARK    7  A    between atoms: O_26  and  C_27
REMARK                            x       y       z     vdW  Elec       q    Type
REMARK                         _______ _______ _______ _____ _____    ______ ____
ROOT
ATOM      1  O   UNL     1     -12.105 -10.968   0.000  0.00  0.00    -0.246 OA
ATOM      2  C   UNL     1     -10.806 -10.218   0.000  0.00  0.00    +0.333 A 
ATOM      3  N   UNL     1      -9.507 -10.968   0.000  0.00  0.00    -0.281 N 
ATOM      4  C   UNL     1      -9.507 -12.468   0.000  0.00  0.00    +0.155 C 
ATOM      5  C   UNL     1      -8.208 -10.218   0.000  0.00  0.00    +0.147 A 
ATOM      6  C   UNL     1      -8.208  -8.718   0.000  0.00  0.00    +0.149 A 
ATOM      7  C   UNL     1      -9.507  -7.968   0.000  0.00  0.00    +0.282 A 
ATOM      8  O   UNL     1      -9.507  -6.468   0.000  0.00  0.00    -0.265 OA
ATOM      9  N   UNL     1      -6.781  -8.255   0.000  0.00  0.00    -0.317 N 
ATOM     10  C   UNL     1      -5.899  -9.468   0.000  0.00  0.00    +0.228 A 
ATOM     11  N   UNL     1      -4.399  -9.468   0.000  0.00  0.00    -0.113 NA
ATOM     24  H   UNL     1      -6.318  -6.828   0.000  0.00  0.00    +0.169 HD
ATOM     25  N   UNL     1      -6.781 -10.682   0.000  0.00  0.00    -0.309 N 
ATOM     26  H   UNL     1      -6.318 -12.108   0.000  0.00  0.00    +0.170 HD
ATOM     27  N   UNL     1     -10.806  -8.718   0.000  0.00  0.00    -0.262 N 
ATOM     28  C   UNL     1     -12.105  -7.968   0.000  0.00  0.00    +0.157 C 
ENDROOT
BRANCH  11  12
ATOM     12  N   UNL     1      -3.650  -8.169   0.000  0.00  0.00    -0.154 NA
ATOM     13  C   UNL     1      -2.150  -8.169   0.000  0.00  0.00    +0.143 C 
BRANCH  13  14
ATOM     14  C   UNL     1      -1.400  -6.870   0.000  0.00  0.00    -0.002 A 
ATOM     15  C   UNL     1       0.101  -6.870   0.000  0.00  0.00    +0.013 A 
ATOM     16  C   UNL     1       0.851  -5.571   0.000  0.00  0.00    +0.050 A 
ATOM     17  C   UNL     1       0.101  -4.272   0.000  0.00  0.00    +0.158 A 
ATOM     20  C   UNL     1      -1.400  -4.272   0.000  0.00  0.00    +0.162 A 
ATOM     23  C   UNL     1      -2.150  -5.571   0.000  0.00  0.00    +0.059 A 
BRANCH  17  18
ATOM     18  O   UNL     1       0.851  -2.973   0.000  0.00  0.00    -0.503 OA
ATOM     19  H   UNL     1       1.787  -2.973   0.000  0.00  0.00    +0.292 HD
ENDBRANCH  17  18
BRANCH  20  21
ATOM     21  O   UNL     1      -2.150  -2.973   0.000  0.00  0.00    -0.491 OA
ATOM     22  C   UNL     1      -1.400  -1.674   0.000  0.00  0.00    +0.277 C 
ENDBRANCH  20  21
ENDBRANCH  13  14
ENDBRANCH  11  12
TORSDOF 4