REMARK  Name = 6268
REMARK  6 active torsions:
REMARK  status: ('A' for Active; 'I' for Inactive)
REMARK    1  A    between atoms: N_1  and  C_18
REMARK    2  A    between atoms: N_2  and  C_7
REMARK    3  A    between atoms: N_3  and  C_6
REMARK    4  A    between atoms: N_4  and  C_12
REMARK    5  A    between atoms: C_5  and  O_24
REMARK    6  A    between atoms: C_9  and  O_23
REMARK                            x       y       z     vdW  Elec       q    Type
REMARK                         _______ _______ _______ _____ _____    ______ ____
ROOT
ATOM      3  C   UNL     1      -9.843  -3.750   0.000  0.00  0.00    +0.171 A 
ATOM      4  C   UNL     1      -9.843  -5.250   0.000  0.00  0.00    +0.148 A 
ATOM      7  C   UNL     1      -8.544  -6.000   0.000  0.00  0.00    +0.050 A 
ATOM      8  C   UNL     1      -7.245  -5.250   0.000  0.00  0.00    +0.037 A 
ATOM      9  C   UNL     1      -7.245  -3.750   0.000  0.00  0.00    +0.130 A 
ATOM     18  C   UNL     1      -8.544  -3.000   0.000  0.00  0.00    +0.175 A 
ENDROOT
BRANCH   3   2
ATOM      1  N   UNL     1     -12.441  -3.750   0.000  0.00  0.00    -0.149 NA
ATOM      2  N   UNL     1     -11.142  -3.000   0.000  0.00  0.00    -0.142 NA
BRANCH   1  21
ATOM     21  C   UNL     1     -13.740  -3.000   0.000  0.00  0.00    +0.086 A 
ATOM     22  C   UNL     1     -15.039  -3.750   0.000  0.00  0.00    +0.029 A 
ATOM     23  C   UNL     1     -16.339  -3.000   0.000  0.00  0.00    +0.002 A 
ATOM     24  C   UNL     1     -16.339  -1.500   0.000  0.00  0.00    +0.000 A 
ATOM     25  C   UNL     1     -15.039  -0.750   0.000  0.00  0.00    +0.002 A 
ATOM     26  C   UNL     1     -13.740  -1.500   0.000  0.00  0.00    +0.029 A 
ENDBRANCH   1  21
ENDBRANCH   3   2
BRANCH   4   5
ATOM      5  O   UNL     1     -11.142  -6.000   0.000  0.00  0.00    -0.504 OA
ATOM      6  H   UNL     1     -11.954  -5.532   0.000  0.00  0.00    +0.292 HD
ENDBRANCH   4   5
BRANCH   9  10
ATOM     10  N   UNL     1      -5.946  -3.000   0.000  0.00  0.00    -0.146 NA
ATOM     11  N   UNL     1      -4.647  -3.750   0.000  0.00  0.00    -0.149 NA
BRANCH  11  12
ATOM     12  C   UNL     1      -3.348  -3.000   0.000  0.00  0.00    +0.086 A 
ATOM     13  C   UNL     1      -2.049  -3.750   0.000  0.00  0.00    +0.029 A 
ATOM     14  C   UNL     1      -0.750  -3.000   0.000  0.00  0.00    +0.002 A 
ATOM     15  C   UNL     1      -0.750  -1.500   0.000  0.00  0.00    +0.000 A 
ATOM     16  C   UNL     1      -2.049  -0.750   0.000  0.00  0.00    +0.002 A 
ATOM     17  C   UNL     1      -3.348  -1.500   0.000  0.00  0.00    +0.029 A 
ENDBRANCH  11  12
ENDBRANCH   9  10
BRANCH  18  19
ATOM     19  O   UNL     1      -8.544  -1.500   0.000  0.00  0.00    -0.503 OA
ATOM     20  H   UNL     1      -7.733  -1.031   0.000  0.00  0.00    +0.292 HD
ENDBRANCH  18  19
TORSDOF 6