REMARK  Name = 62375
REMARK  7 active torsions:
REMARK  status: ('A' for Active; 'I' for Inactive)
REMARK    1  A    between atoms: N_3  and  C_18
REMARK    2  A    between atoms: N_4  and  C_19
REMARK    3  A    between atoms: C_8  and  C_21
REMARK    4  A    between atoms: C_10  and  C_15
REMARK    5  A    between atoms: C_11  and  C_20
REMARK    6  A    between atoms: C_13  and  C_17
REMARK    7  A    between atoms: C_18  and  C_19
REMARK                            x       y       z     vdW  Elec       q    Type
REMARK                         _______ _______ _______ _____ _____    ______ ____
ROOT
ATOM      8  C   UNL     1       4.821   6.649   0.000  0.00  0.00    +0.100 C 
ENDROOT
BRANCH   8   7
ATOM      1  O   UNL     1      -1.674   4.399   0.000  0.00  0.00    -0.279 OA
ATOM      2  C   UNL     1      -0.375   3.650   0.000  0.00  0.00    +0.328 C 
ATOM      3  N   UNL     1       0.924   4.399   0.000  0.00  0.00    -0.299 N 
ATOM      4  C   UNL     1       2.223   3.650   0.000  0.00  0.00    +0.126 C 
ATOM      5  C   UNL     1       3.522   4.399   0.000  0.00  0.00    +0.071 C 
ATOM      6  C   UNL     1       4.821   3.650   0.000  0.00  0.00    +0.026 C 
ATOM      7  N   UNL     1       3.522   5.899   0.000  0.00  0.00    -0.295 NA
ATOM     20  C   UNL     1       2.223   6.649   0.000  0.00  0.00    +0.107 C 
ATOM     21  C   UNL     1       0.924   5.899   0.000  0.00  0.00    +0.087 C 
ATOM     22  C   UNL     1      -0.375   6.649   0.000  0.00  0.00    +0.029 C 
ENDBRANCH   8   7
BRANCH   8   9
ATOM      9  C   UNL     1       4.821   8.149   0.000  0.00  0.00    +0.100 C 
BRANCH   9  10
ATOM     10  N   UNL     1       6.120   8.899   0.000  0.00  0.00    -0.295 NA
ATOM     11  C   UNL     1       7.419   8.149   0.000  0.00  0.00    +0.071 C 
ATOM     12  C   UNL     1       7.419   6.649   0.000  0.00  0.00    +0.026 C 
ATOM     13  C   UNL     1       8.718   8.899   0.000  0.00  0.00    +0.126 C 
ATOM     14  N   UNL     1       8.718  10.400   0.000  0.00  0.00    -0.299 N 
ATOM     15  C   UNL     1      10.017  11.150   0.000  0.00  0.00    +0.328 C 
ATOM     16  O   UNL     1      10.017  12.650   0.000  0.00  0.00    -0.279 OA
ATOM     17  C   UNL     1       7.419  11.150   0.000  0.00  0.00    +0.087 C 
ATOM     18  C   UNL     1       7.419  12.650   0.000  0.00  0.00    +0.029 C 
ATOM     19  C   UNL     1       6.120  10.400   0.000  0.00  0.00    +0.107 C 
ENDBRANCH   9  10
ENDBRANCH   8   9
TORSDOF 3