REMARK  Name = 646976
REMARK  5 active torsions:
REMARK  status: ('A' for Active; 'I' for Inactive)
REMARK    1  A    between atoms: C_7  and  C_11
REMARK    2  A    between atoms: C_11  and  C_13
REMARK    3  A    between atoms: C_13  and  O_15
REMARK    4  A    between atoms: O_15  and  C_16
REMARK    5  A    between atoms: C_16  and  C_17
REMARK                            x       y       z     vdW  Elec       q    Type
REMARK                         _______ _______ _______ _____ _____    ______ ____
ROOT
ATOM      1  C   UNL     1       0.297   5.486   0.000  0.00  0.00    +0.006 A 
ATOM      2  C   UNL     1       1.596   4.736   0.000  0.00  0.00    -0.007 A 
ATOM      3  C   UNL     1       3.022   5.200   0.000  0.00  0.00    +0.184 C 
ATOM     11  C   UNL     1       3.904   3.986   0.000  0.00  0.00    +0.233 C 
ATOM     12  O   UNL     1       5.404   3.986   0.000  0.00  0.00    -0.274 OA
ATOM     13  N   UNL     1       3.022   2.773   0.000  0.00  0.00    -0.284 N 
ATOM     14  H   UNL     1       3.327   1.836   0.000  0.00  0.00    +0.155 HD
ATOM     15  C   UNL     1       1.596   3.236   0.000  0.00  0.00    +0.038 A 
ATOM     16  C   UNL     1       0.297   2.486   0.000  0.00  0.00    +0.023 A 
ATOM     17  C   UNL     1      -1.002   3.236   0.000  0.00  0.00    +0.002 A 
ATOM     18  C   UNL     1      -1.002   4.736   0.000  0.00  0.00    +0.000 A 
ENDROOT
BRANCH   3   4
ATOM      4  C   UNL     1       3.486   6.626   0.000  0.00  0.00    +0.255 C 
ATOM     10  O   UNL     1       2.482   7.741   0.000  0.00  0.00    -0.284 OA
BRANCH   4   5
ATOM      5  C   UNL     1       4.953   6.938   0.000  0.00  0.00    +0.376 C 
ATOM      9  O   UNL     1       5.957   5.823   0.000  0.00  0.00    -0.242 OA
BRANCH   5   6
ATOM      6  O   UNL     1       5.417   8.365   0.000  0.00  0.00    -0.459 OA
BRANCH   6   7
ATOM      7  C   UNL     1       6.884   8.677   0.000  0.00  0.00    +0.229 C 
ATOM      8  C   UNL     1       7.888   7.562   0.000  0.00  0.00    +0.048 C 
ENDBRANCH   6   7
ENDBRANCH   5   6
ENDBRANCH   4   5
ENDBRANCH   3   4
TORSDOF 4