REMARK  Name = 63161
REMARK  5 active torsions:
REMARK  status: ('A' for Active; 'I' for Inactive)
REMARK    1  A    between atoms: N_3  and  N_19
REMARK    2  A    between atoms: C_6  and  C_20
REMARK    3  A    between atoms: C_10  and  C_20
REMARK    4  A    between atoms: C_11  and  C_18
REMARK    5  A    between atoms: C_12  and  C_18
REMARK                            x       y       z     vdW  Elec       q    Type
REMARK                         _______ _______ _______ _____ _____    ______ ____
ROOT
ATOM      1  N   UNL     1      -6.121  -4.400   0.000  0.00  0.00    -0.133 NA
ATOM      2  C   UNL     1      -6.278  -5.892   0.000  0.00  0.00    +0.152 A 
ATOM     10  N   UNL     1      -4.908  -6.502   0.000  0.00  0.00    -0.247 N 
ATOM     14  C   UNL     1      -3.904  -5.387   0.000  0.00  0.00    +0.152 A 
ATOM     22  N   UNL     1      -4.654  -4.088   0.000  0.00  0.00    -0.133 NA
ENDROOT
BRANCH  10  11
ATOM     11  N   UNL     1      -4.596  -7.969   0.000  0.00  0.00    -0.240 N 
ATOM     12  H   UNL     1      -3.626  -8.284   0.000  0.00  0.00    +0.143 HD
ATOM     13  H   UNL     1      -5.354  -8.652   0.000  0.00  0.00    +0.143 HD
ENDBRANCH  10  11
BRANCH   2   3
ATOM      3  C   UNL     1      -7.577  -6.642   0.000  0.00  0.00    +0.112 C 
BRANCH   3   4
ATOM      4  C   UNL     1      -7.577  -8.142   0.000  0.00  0.00    -0.040 A 
ATOM      5  C   UNL     1      -8.876  -8.892   0.000  0.00  0.00    +0.004 A 
ATOM      6  C   UNL     1      -8.876 -10.392   0.000  0.00  0.00    +0.000 A 
ATOM      7  C   UNL     1      -7.577 -11.142   0.000  0.00  0.00    +0.000 A 
ATOM      8  C   UNL     1      -6.278 -10.392   0.000  0.00  0.00    +0.000 A 
ATOM      9  C   UNL     1      -6.278  -8.892   0.000  0.00  0.00    +0.004 A 
ENDBRANCH   3   4
ENDBRANCH   2   3
BRANCH  14  15
ATOM     15  C   UNL     1      -2.412  -5.544   0.000  0.00  0.00    +0.112 C 
BRANCH  15  16
ATOM     16  C   UNL     1      -1.530  -4.330   0.000  0.00  0.00    -0.040 A 
ATOM     17  C   UNL     1      -0.039  -4.487   0.000  0.00  0.00    +0.004 A 
ATOM     18  C   UNL     1       0.843  -3.274   0.000  0.00  0.00    +0.000 A 
ATOM     19  C   UNL     1       0.233  -1.903   0.000  0.00  0.00    +0.000 A 
ATOM     20  C   UNL     1      -1.259  -1.747   0.000  0.00  0.00    +0.000 A 
ATOM     21  C   UNL     1      -2.140  -2.960   0.000  0.00  0.00    +0.004 A 
ENDBRANCH  15  16
ENDBRANCH  14  15
TORSDOF 5