REMARK  Name = 63865
REMARK  6 active torsions:
REMARK  status: ('A' for Active; 'I' for Inactive)
REMARK    1  A    between atoms: C_7  and  C_12
REMARK    2  A    between atoms: C_12  and  C_13
REMARK    3  A    between atoms: C_13  and  C_14
REMARK    4  A    between atoms: C_14  and  C_15
REMARK    5  A    between atoms: C_15  and  C_16
REMARK    6  A    between atoms: C_16  and  O_18
REMARK                            x       y       z     vdW  Elec       q    Type
REMARK                         _______ _______ _______ _____ _____    ______ ____
ROOT
ATOM      1  O   UNL     1      -2.742  -1.647   0.000  0.00  0.00    -0.253 OA
ATOM      2  C   UNL     1      -1.245  -1.563   0.000  0.00  0.00    +0.300 C 
ATOM      3  N   UNL     1      -0.433  -0.301   0.000  0.00  0.00    -0.294 N 
ATOM      4  C   UNL     1       1.018  -0.684   0.000  0.00  0.00    +0.108 C 
ATOM      5  C   UNL     1       1.102  -2.182   0.000  0.00  0.00    +0.105 C 
ATOM      6  C   UNL     1       2.553  -2.564   0.000  0.00  0.00    +0.093 C 
ATOM      7  S   UNL     1       3.365  -1.303   0.000  0.00  0.00    -0.154 S 
ATOM      8  C   UNL     1       2.416  -0.141   0.000  0.00  0.00    +0.069 C 
ATOM     17  H   UNL     1      -0.976   1.097   0.000  0.00  0.00    +0.151 HD
ATOM     18  N   UNL     1      -0.296  -2.725   0.000  0.00  0.00    -0.294 N 
ATOM     19  H   UNL     1      -0.679  -4.175   0.000  0.00  0.00    +0.151 HD
ENDROOT
BRANCH   8   9
ATOM      9  C   UNL     1       2.799   1.310   0.000  0.00  0.00    +0.016 C 
BRANCH   9  10
ATOM     10  C   UNL     1       1.734   2.366   0.000  0.00  0.00    +0.002 C 
BRANCH  10  11
ATOM     11  C   UNL     1       0.286   1.972   0.000  0.00  0.00    +0.011 C 
BRANCH  11  12
ATOM     12  C   UNL     1      -0.778   3.029   0.000  0.00  0.00    +0.120 C 
BRANCH  12  13
ATOM     13  C   UNL     1      -2.226   2.635   0.000  0.00  0.00    +0.305 C 
ATOM     16  O   UNL     1      -2.608   1.184   0.000  0.00  0.00    -0.251 OA
BRANCH  13  14
ATOM     14  O   UNL     1      -3.291   3.691   0.000  0.00  0.00    -0.481 OA
ATOM     15  H   UNL     1      -3.052   4.597   0.000  0.00  0.00    +0.295 HD
ENDBRANCH  13  14
ENDBRANCH  12  13
ENDBRANCH  11  12
ENDBRANCH  10  11
ENDBRANCH   9  10
ENDBRANCH   8   9
TORSDOF 6