REMARK  Name = 62901
REMARK  5 active torsions:
REMARK  status: ('A' for Active; 'I' for Inactive)
REMARK    1  A    between atoms: AS_2  and  C_3
REMARK    2  A    between atoms: AS_2  and  O_11
REMARK    3  A    between atoms: AS_2  and  O_12
REMARK    4  A    between atoms: C_8  and  N_13
REMARK    5  A    between atoms: C_9  and  C_14
REMARK                            x       y       z     vdW  Elec       q    Type
REMARK                         _______ _______ _______ _____ _____    ______ ____
ROOT
ATOM      7  C   UNL     1       3.750   2.250   0.000  0.00  0.00    +0.000 A 
ATOM      8  C   UNL     1       4.500   0.951   0.000  0.00  0.00    +0.000 A 
ATOM      9  C   UNL     1       6.000   0.951   0.000  0.00  0.00    +0.000 A 
ATOM     10  C   UNL     1       6.750   2.250   0.000  0.00  0.00    +0.000 A 
ATOM     16  C   UNL     1       6.000   3.549   0.000  0.00  0.00    +0.000 A 
ATOM     17  C   UNL     1       4.500   3.549   0.000  0.00  0.00    +0.000 A 
ENDROOT
BRANCH  10  11
ATOM     11  N   UNL     1       8.250   2.250   0.000  0.00  0.00    +0.000 N 
ATOM     12  H   UNL     1       8.742   1.397   0.000  0.00  0.00    +0.000 HD
ATOM     13  C   UNL     1       9.000   3.549   0.000  0.00  0.00    +0.000 C 
ATOM     14  C   UNL     1      10.500   3.549   0.000  0.00  0.00    +0.000 C 
ATOM     15  O   UNL     1       8.250   4.848   0.000  0.00  0.00    +0.000 OA
ENDBRANCH  10  11
BRANCH   7   2
ATOM      1  O   UNL     1       2.250   3.750   0.000  0.00  0.00    +0.000 OA
ATOM      2 AS   UNL     1       2.250   2.250   0.000  0.00  0.00    +0.000 As
BRANCH   2   3
ATOM      3  O   UNL     1       2.250   0.750   0.000  0.00  0.00    +0.000 OA
ATOM      4  H   UNL     1       1.410   0.265   0.000  0.00  0.00    +0.000 HD
ENDBRANCH   2   3
BRANCH   2   5
ATOM      5  O   UNL     1       0.750   2.250   0.000  0.00  0.00    +0.000 OA
ATOM      6  H   UNL     1       0.265   3.090   0.000  0.00  0.00    +0.000 HD
ENDBRANCH   2   5
ENDBRANCH   7   2
TORSDOF 4