REMARK  Name = 639174
REMARK  6 active torsions:
REMARK  status: ('A' for Active; 'I' for Inactive)
REMARK    1  A    between atoms: C_4  and  N_11
REMARK    2  A    between atoms: C_20  and  O_24
REMARK    3  A    between atoms: C_20  and  C_25
REMARK    4  A    between atoms: C_25  and  C_26
REMARK    5  A    between atoms: C_29  and  C_31
REMARK    6  A    between atoms: C_31  and  N_32
REMARK                            x       y       z     vdW  Elec       q    Type
REMARK                         _______ _______ _______ _____ _____    ______ ____
ROOT
ATOM      1 CL   UNL     1     -13.026  -2.301   0.000  0.00  0.00    -0.145 Cl
ATOM      2  H   UNL     1     -11.696  -2.301   0.000  0.00  0.00    +0.145 HD
ENDROOT
TORSDOF 0