REMARK  Name = 62511
REMARK  6 active torsions:
REMARK  status: ('A' for Active; 'I' for Inactive)
REMARK    1  A    between atoms: C_2  and  C_10
REMARK    2  A    between atoms: C_3  and  O_7
REMARK    3  A    between atoms: C_5  and  O_8
REMARK    4  A    between atoms: C_6  and  O_9
REMARK    5  A    between atoms: C_10  and  O_12
REMARK    6  A    between atoms: O_12  and  C_13
REMARK                            x       y       z     vdW  Elec       q    Type
REMARK                         _______ _______ _______ _____ _____    ______ ____
ROOT
ATOM      1  C   UNL     1      -2.223  -3.650   0.000  0.00  0.00    +0.048 C 
ATOM      2  C   UNL     1      -3.522  -4.399   0.000  0.00  0.00    +0.146 C 
ATOM      5  C   UNL     1      -3.522  -5.899   0.000  0.00  0.00    +0.171 C 
ATOM      8  C   UNL     1      -2.223  -6.649   0.000  0.00  0.00    +0.146 C 
ATOM     11  C   UNL     1      -0.924  -5.899   0.000  0.00  0.00    +0.048 C 
ATOM     12  C   UNL     1      -0.924  -4.399   0.000  0.00  0.00    +0.103 C 
ENDROOT
BRANCH   2   3
ATOM      3  O   UNL     1      -4.821  -3.650   0.000  0.00  0.00    -0.389 OA
ATOM      4  H   UNL     1      -4.821  -2.680   0.000  0.00  0.00    +0.210 HD
ENDBRANCH   2   3
BRANCH   5   6
ATOM      6  O   UNL     1      -4.821  -6.649   0.000  0.00  0.00    -0.387 OA
ATOM      7  H   UNL     1      -5.661  -6.165   0.000  0.00  0.00    +0.210 HD
ENDBRANCH   5   6
BRANCH   8   9
ATOM      9  O   UNL     1      -2.223  -8.149   0.000  0.00  0.00    -0.389 OA
ATOM     10  H   UNL     1      -3.063  -8.634   0.000  0.00  0.00    +0.210 HD
ENDBRANCH   8   9
BRANCH  12  13
ATOM     13  C   UNL     1       0.375  -3.650   0.000  0.00  0.00    +0.310 C 
ATOM     16  O   UNL     1       1.674  -4.399   0.000  0.00  0.00    -0.251 OA
BRANCH  13  14
ATOM     14  O   UNL     1       0.375  -2.150   0.000  0.00  0.00    -0.468 OA
ATOM     15  C   UNL     1      -0.924  -1.400   0.000  0.00  0.00    +0.280 C 
ENDBRANCH  13  14
ENDBRANCH  12  13
TORSDOF 5