REMARK  Name = 63680
REMARK  4 active torsions:
REMARK  status: ('A' for Active; 'I' for Inactive)
REMARK    1  A    between atoms: C_8  and  C_11
REMARK    2  A    between atoms: C_12  and  N_30
REMARK    3  A    between atoms: C_18  and  N_27
REMARK    4  A    between atoms: C_21  and  C_23
REMARK                            x       y       z     vdW  Elec       q    Type
REMARK                         _______ _______ _______ _____ _____    ______ ____
ROOT
ATOM     12  N   UNL     1       2.223 -12.650   0.000  0.00  0.00    -0.269 N 
ATOM     13  H   UNL     1       3.076 -13.142   0.000  0.00  0.00    +0.156 HD
ATOM     14  C   UNL     1       2.223 -11.150   0.000  0.00  0.00    +0.308 C 
ATOM     15  N   UNL     1       0.924 -10.400   0.000  0.00  0.00    -0.269 N 
ATOM     16  H   UNL     1       0.071 -10.892   0.000  0.00  0.00    +0.156 HD
ATOM     30  O   UNL     1       3.522 -10.400   0.000  0.00  0.00    -0.252 OA
ENDROOT
BRANCH  12  11
ATOM      8  C   UNL     1      -1.674 -14.900   0.000  0.00  0.00    +0.065 A 
ATOM      9  C   UNL     1      -0.375 -15.650   0.000  0.00  0.00    +0.018 A 
ATOM     10  C   UNL     1       0.924 -14.900   0.000  0.00  0.00    +0.024 A 
ATOM     11  C   UNL     1       0.924 -13.400   0.000  0.00  0.00    +0.035 A 
ATOM     31  C   UNL     1      -0.375 -12.650   0.000  0.00  0.00    +0.024 A 
ATOM     32  C   UNL     1      -1.674 -13.400   0.000  0.00  0.00    +0.018 A 
BRANCH   8   7
ATOM      1  H   UNL     1      -4.272 -13.400   0.000  0.00  0.00    +0.291 HD
ATOM      2  N   UNL     1      -4.272 -14.900   0.000  0.00  0.00    -0.233 N 
ATOM      3  C   UNL     1      -5.571 -15.650   0.000  0.00  0.00    +0.227 C 
ATOM      4  C   UNL     1      -5.571 -17.150   0.000  0.00  0.00    +0.093 C 
ATOM      5  C   UNL     1      -4.272 -17.900   0.000  0.00  0.00    +0.294 C 
ATOM      6  N   UNL     1      -2.973 -17.150   0.000  0.00  0.00    -0.083 NA
ATOM      7  C   UNL     1      -2.973 -15.650   0.000  0.00  0.00    +0.313 C 
ENDBRANCH   8   7
ENDBRANCH  12  11
BRANCH  15  17
ATOM     17  C   UNL     1       0.924  -8.899   0.000  0.00  0.00    +0.035 A 
ATOM     18  C   UNL     1       2.223  -8.149   0.000  0.00  0.00    +0.024 A 
ATOM     19  C   UNL     1       2.223  -6.649   0.000  0.00  0.00    +0.018 A 
ATOM     20  C   UNL     1       0.924  -5.899   0.000  0.00  0.00    +0.065 A 
ATOM     28  C   UNL     1      -0.375  -6.649   0.000  0.00  0.00    +0.018 A 
ATOM     29  C   UNL     1      -0.375  -8.149   0.000  0.00  0.00    +0.024 A 
BRANCH  20  21
ATOM     21  C   UNL     1       0.924  -4.399   0.000  0.00  0.00    +0.313 C 
ATOM     22  N   UNL     1      -0.375  -3.650   0.000  0.00  0.00    -0.233 N 
ATOM     23  H   UNL     1      -1.674  -4.399   0.000  0.00  0.00    +0.291 HD
ATOM     24  C   UNL     1      -0.375  -2.150   0.000  0.00  0.00    +0.227 C 
ATOM     25  C   UNL     1       0.924  -1.400   0.000  0.00  0.00    +0.093 C 
ATOM     26  C   UNL     1       2.223  -2.150   0.000  0.00  0.00    +0.294 C 
ATOM     27  N   UNL     1       2.223  -3.650   0.000  0.00  0.00    -0.083 NA
ENDBRANCH  20  21
ENDBRANCH  15  17
TORSDOF 4