REMARK  Name = 63543
REMARK  4 active torsions:
REMARK  status: ('A' for Active; 'I' for Inactive)
REMARK    1  A    between atoms: C_6  and  C_25
REMARK    2  A    between atoms: C_7  and  C_24
REMARK    3  A    between atoms: C_15  and  C_23
REMARK    4  A    between atoms: C_25  and  C_27
REMARK                            x       y       z     vdW  Elec       q    Type
REMARK                         _______ _______ _______ _____ _____    ______ ____
ROOT
ATOM      1  O   UNL     1      -1.060   3.336   0.000  0.00  0.00    -0.288 OA
ATOM      2  C   UNL     1       0.239   4.086   0.000  0.00  0.00    +0.179 C 
ATOM      3  C   UNL     1       1.538   3.336   0.000  0.00  0.00    +0.051 C 
ATOM      4  C   UNL     1       2.837   4.086   0.000  0.00  0.00    -0.056 C 
ATOM      5  C   UNL     1       4.136   3.336   0.000  0.00  0.00    +0.032 C 
ATOM      6  C   UNL     1       5.435   4.086   0.000  0.00  0.00    +0.009 C 
ATOM      7  C   UNL     1       5.435   5.586   0.000  0.00  0.00    +0.004 C 
ATOM      8  C   UNL     1       4.136   6.336   0.000  0.00  0.00    +0.072 C 
ATOM      9  C   UNL     1       4.136   7.836   0.000  0.00  0.00    +0.138 C 
ATOM     10  C   UNL     1       5.435   8.586   0.000  0.00  0.00    +0.082 C 
ATOM     11  C   UNL     1       6.734   7.836   0.000  0.00  0.00    -0.013 C 
ATOM     12  C   UNL     1       6.891   9.328   0.000  0.00  0.00    +0.012 C 
ATOM     13  C   UNL     1       8.161   8.300   0.000  0.00  0.00    +0.062 C 
ATOM     17  C   UNL     1       9.042   7.086   0.000  0.00  0.00    +0.012 C 
ATOM     18  C   UNL     1       8.161   5.873   0.000  0.00  0.00    +0.005 C 
ATOM     19  O   UNL     1       2.837   8.586   0.000  0.00  0.00    -0.297 OA
ATOM     20  C   UNL     1       6.734   6.336   0.000  0.00  0.00    -0.000 C 
ATOM     21  C   UNL     1       2.837   5.586   0.000  0.00  0.00    +0.017 C 
ATOM     22  C   UNL     1       2.837   7.086   0.000  0.00  0.00    +0.021 C 
ATOM     23  C   UNL     1       1.538   6.336   0.000  0.00  0.00    -0.012 C 
ATOM     24  C   UNL     1       0.239   5.586   0.000  0.00  0.00    +0.047 C 
ENDROOT
BRANCH  13  14
ATOM     14  C   UNL     1       8.624   9.726   0.000  0.00  0.00    +0.134 C 
ATOM     15  C   UNL     1      10.091  10.038   0.000  0.00  0.00    +0.086 C 
ATOM     16  O   UNL     1       7.620  10.841   0.000  0.00  0.00    -0.297 OA
ENDBRANCH  13  14
TORSDOF 1