REMARK  Name = 64859
REMARK  3 active torsions:
REMARK  status: ('A' for Active; 'I' for Inactive)
REMARK    1  A    between atoms: N_6  and  N_16
REMARK    2  A    between atoms: N_16  and  C_17
REMARK    3  A    between atoms: N_16  and  C_18
REMARK                            x       y       z     vdW  Elec       q    Type
REMARK                         _______ _______ _______ _____ _____    ______ ____
ROOT
ATOM      1 CL   UNL     1      -6.125  -7.231   0.000  0.00  0.00    -0.080 Cl
ATOM      2  C   UNL     1      -4.633  -7.074   0.000  0.00  0.00    +0.080 A 
ATOM      3  C   UNL     1      -3.751  -8.288   0.000  0.00  0.00    +0.080 A 
ATOM      4  C   UNL     1      -2.260  -8.131   0.000  0.00  0.00    +0.074 A 
ATOM      5  C   UNL     1      -1.650  -6.761   0.000  0.00  0.00    +0.072 A 
ATOM      6  C   UNL     1      -0.223  -6.297   0.000  0.00  0.00    +0.270 C 
ATOM      7  O   UNL     1       0.991  -7.179   0.000  0.00  0.00    -0.268 OA
ATOM      8  N   UNL     1      -0.223  -4.797   0.000  0.00  0.00    -0.162 N 
ATOM     12  C   UNL     1      -1.650  -4.334   0.000  0.00  0.00    +0.270 C 
ATOM     13  O   UNL     1      -2.113  -2.907   0.000  0.00  0.00    -0.268 OA
ATOM     14  C   UNL     1      -2.531  -5.547   0.000  0.00  0.00    +0.072 A 
ATOM     15 CL   UNL     1      -1.378  -9.345   0.000  0.00  0.00    -0.081 Cl
ATOM     16 CL   UNL     1      -4.361  -9.658   0.000  0.00  0.00    -0.080 Cl
ATOM     17  C   UNL     1      -4.023  -5.704   0.000  0.00  0.00    +0.074 A 
ATOM     18 CL   UNL     1      -4.905  -4.490   0.000  0.00  0.00    -0.081 Cl
ENDROOT
BRANCH   8   9
ATOM      9  N   UNL     1       0.991  -3.916   0.000  0.00  0.00    -0.223 NA
ATOM     10  C   UNL     1       0.834  -2.424   0.000  0.00  0.00    +0.128 C 
ATOM     11  C   UNL     1       2.361  -4.526   0.000  0.00  0.00    +0.128 C 
ENDBRANCH   8   9
TORSDOF 1