REMARK  Name = 637325
REMARK  10 active torsions:
REMARK  status: ('A' for Active; 'I' for Inactive)
REMARK    1  A    between atoms: C_3  and  N_9
REMARK    2  A    between atoms: C_6  and  C_7
REMARK    3  A    between atoms: C_8  and  P_12
REMARK    4  A    between atoms: C_8  and  C_13
REMARK    5  A    between atoms: P_12  and  O_16
REMARK    6  A    between atoms: P_12  and  O_17
REMARK    7  A    between atoms: O_16  and  C_20
REMARK    8  A    between atoms: O_17  and  C_18
REMARK    9  A    between atoms: C_18  and  C_19
REMARK   10  A    between atoms: C_20  and  C_21
REMARK                            x       y       z     vdW  Elec       q    Type
REMARK                         _______ _______ _______ _____ _____    ______ ____
ROOT
ATOM      3  C   UNL     1      -4.821  -5.149   0.000  0.00  0.00    +0.035 C 
ATOM      4  C   UNL     1      -3.522  -5.899   0.000  0.00  0.00    +0.141 C 
ENDROOT
BRANCH   3   2
ATOM      1  C   UNL     1      -7.419  -5.149   0.000  0.00  0.00    +0.014 A 
ATOM      2  C   UNL     1      -6.120  -5.899   0.000  0.00  0.00    -0.023 A 
ATOM     15  C   UNL     1      -6.120  -7.399   0.000  0.00  0.00    +0.014 A 
ATOM     16  C   UNL     1      -7.419  -8.149   0.000  0.00  0.00    +0.085 A 
ATOM     17  C   UNL     1      -8.718  -7.399   0.000  0.00  0.00    +0.273 A 
ATOM     21  C   UNL     1      -8.718  -5.899   0.000  0.00  0.00    +0.085 A 
BRANCH  17  18
ATOM     18  N   UNL     1     -10.017  -8.149   0.000  0.00  0.00    +0.080 N 
ATOM     19  O   UNL     1     -10.017  -9.649   0.000  0.00  0.00    +0.041 OA
ATOM     20  O   UNL     1     -11.316  -7.399   0.000  0.00  0.00    -0.576 OA
ENDBRANCH  17  18
ENDBRANCH   3   2
BRANCH   4   5
ATOM      5  C   UNL     1      -3.522  -7.399   0.000  0.00  0.00    +0.107 C 
ATOM      6  N   UNL     1      -3.522  -8.899   0.000  0.00  0.00    -0.191 NA
ENDBRANCH   4   5
BRANCH   4   7
ATOM      7  P   UNL     1      -2.223  -5.149   0.000  0.00  0.00    +0.373 P 
ATOM     14  O   UNL     1      -2.973  -3.850   0.000  0.00  0.00    -0.252 OA
BRANCH   7   8
ATOM      8  O   UNL     1      -0.924  -4.399   0.000  0.00  0.00    -0.304 OA
BRANCH   8   9
ATOM      9  C   UNL     1      -0.924  -2.900   0.000  0.00  0.00    +0.167 C 
ATOM     10  C   UNL     1       0.375  -2.150   0.000  0.00  0.00    +0.034 C 
ENDBRANCH   8   9
ENDBRANCH   7   8
BRANCH   7  11
ATOM     11  O   UNL     1      -1.473  -6.449   0.000  0.00  0.00    -0.304 OA
BRANCH  11  12
ATOM     12  C   UNL     1      -2.223  -7.748   0.000  0.00  0.00    +0.167 C 
ATOM     13  C   UNL     1      -1.473  -9.047   0.000  0.00  0.00    +0.034 C 
ENDBRANCH  11  12
ENDBRANCH   7  11
ENDBRANCH   4   7
TORSDOF 8