REMARK  Name = 643150
REMARK  4 active torsions:
REMARK  status: ('A' for Active; 'I' for Inactive)
REMARK    1  A    between atoms: C_5  and  C_6
REMARK    2  A    between atoms: C_7  and  C_8
REMARK    3  A    between atoms: C_7  and  C_10
REMARK    4  A    between atoms: C_10  and  C_12
REMARK                            x       y       z     vdW  Elec       q    Type
REMARK                         _______ _______ _______ _____ _____    ______ ____
ROOT
ATOM      4  C   UNL     1      -7.520  -1.025   0.000  0.00  0.00    +0.048 C 
ATOM      5  C   UNL     1      -6.221  -0.275   0.000  0.00  0.00    +0.101 C 
ENDROOT
BRANCH   4   3
ATOM      1  N   UNL     1     -10.189  -0.885   0.000  0.00  0.00    -0.361 N 
ATOM      2  H   UNL     1     -10.394  -1.848   0.000  0.00  0.00    +0.165 HD
ATOM      3  C   UNL     1      -8.819  -0.275   0.000  0.00  0.00    +0.041 A 
ATOM     16  C   UNL     1      -8.976   1.217   0.000  0.00  0.00    +0.027 A 
ATOM     17  C   UNL     1     -10.443   1.529   0.000  0.00  0.00    +0.019 A 
ATOM     18  C   UNL     1     -11.193   0.230   0.000  0.00  0.00    +0.083 A 
ENDBRANCH   4   3
BRANCH   5   6
ATOM      6  C   UNL     1      -4.922  -1.025   0.000  0.00  0.00    +0.203 C 
ATOM     13  O   UNL     1      -3.623  -0.275   0.000  0.00  0.00    -0.286 OA
BRANCH   6   7
ATOM      7  C   UNL     1      -4.922  -2.525   0.000  0.00  0.00    +0.023 A 
ATOM      8  C   UNL     1      -6.221  -3.275   0.000  0.00  0.00    +0.012 A 
ATOM      9  C   UNL     1      -6.221  -4.774   0.000  0.00  0.00    +0.001 A 
ATOM     10  C   UNL     1      -4.922  -5.524   0.000  0.00  0.00    +0.000 A 
ATOM     11  C   UNL     1      -3.623  -4.774   0.000  0.00  0.00    +0.001 A 
ATOM     12  C   UNL     1      -3.623  -3.275   0.000  0.00  0.00    +0.012 A 
ENDBRANCH   6   7
ENDBRANCH   5   6
BRANCH   5  14
ATOM     14  C   UNL     1      -6.221   1.226   0.000  0.00  0.00    +0.103 C 
ATOM     15  N   UNL     1      -6.221   2.725   0.000  0.00  0.00    -0.191 NA
ENDBRANCH   5  14
TORSDOF 4