REMARK  Name = 62611
REMARK  1 active torsions:
REMARK  status: ('A' for Active; 'I' for Inactive)
REMARK    1  A    between atoms: C_14  and  C_15
REMARK                            x       y       z     vdW  Elec       q    Type
REMARK                         _______ _______ _______ _____ _____    ______ ____
ROOT
ATOM      1  S   UNL     1      -6.132  -1.037   0.000  0.00  0.00    -0.066 S 
ATOM      2  C   UNL     1      -5.250  -2.250   0.000  0.00  0.00    +0.128 A 
ATOM      9  N   UNL     1      -6.132  -3.463   0.000  0.00  0.00    -0.237 NA
ATOM     10  C   UNL     1      -7.558  -3.000   0.000  0.00  0.00    +0.079 A 
ATOM     11  C   UNL     1      -8.857  -3.750   0.000  0.00  0.00    +0.029 A 
ATOM     12  C   UNL     1     -10.156  -3.000   0.000  0.00  0.00    +0.002 A 
ATOM     13  C   UNL     1     -10.156  -1.500   0.000  0.00  0.00    +0.001 A 
ATOM     14  C   UNL     1      -8.857  -0.750   0.000  0.00  0.00    +0.017 A 
ATOM     15  C   UNL     1      -7.558  -1.500   0.000  0.00  0.00    +0.040 A 
ENDROOT
BRANCH   2   3
ATOM      3  C   UNL     1      -3.750  -2.250   0.000  0.00  0.00    +0.096 A 
ATOM      4  C   UNL     1      -3.000  -3.549   0.000  0.00  0.00    +0.030 A 
ATOM      5  C   UNL     1      -1.500  -3.549   0.000  0.00  0.00    +0.004 A 
ATOM      6  C   UNL     1      -0.750  -2.250   0.000  0.00  0.00    +0.020 A 
ATOM      7  C   UNL     1      -1.500  -0.951   0.000  0.00  0.00    +0.111 A 
ATOM      8  N   UNL     1      -3.000  -0.951   0.000  0.00  0.00    -0.253 NA
ENDBRANCH   2   3
TORSDOF 1