REMARK  Name = 643029
REMARK  8 active torsions:
REMARK  status: ('A' for Active; 'I' for Inactive)
REMARK    1  A    between atoms: C_1  and  O_7
REMARK    2  A    between atoms: C_4  and  C_14
REMARK    3  A    between atoms: O_7  and  C_8
REMARK    4  A    between atoms: C_15  and  C_16
REMARK    5  A    between atoms: C_16  and  C_18
REMARK    6  A    between atoms: C_18  and  C_19
REMARK    7  A    between atoms: C_18  and  C_20
REMARK    8  A    between atoms: C_18  and  C_21
REMARK                            x       y       z     vdW  Elec       q    Type
REMARK                         _______ _______ _______ _____ _____    ______ ____
ROOT
ATOM      1  C   UNL     1      11.316   4.399   0.000  0.00  0.00    +0.128 A 
ATOM      9  C   UNL     1      11.316   5.899   0.000  0.00  0.00    +0.047 A 
ATOM     10  C   UNL     1      10.017   6.649   0.000  0.00  0.00    +0.011 A 
ATOM     11  C   UNL     1       8.718   5.899   0.000  0.00  0.00    -0.025 A 
ATOM     20  C   UNL     1       8.718   4.399   0.000  0.00  0.00    +0.011 A 
ATOM     21  C   UNL     1      10.017   3.650   0.000  0.00  0.00    +0.047 A 
ENDROOT
BRANCH  11  12
ATOM     12  C   UNL     1       7.419   6.649   0.000  0.00  0.00    +0.011 C 
ATOM     13  C   UNL     1       7.419   8.149   0.000  0.00  0.00    +0.047 C 
BRANCH  13  14
ATOM     14  C   UNL     1       6.120   8.899   0.000  0.00  0.00    +0.161 C 
ATOM     19  O   UNL     1       4.821   8.149   0.000  0.00  0.00    -0.292 OA
BRANCH  14  15
ATOM     15  C   UNL     1       6.120  10.400   0.000  0.00  0.00    +0.025 C 
ATOM     16  C   UNL     1       4.620  10.400   0.000  0.00  0.00    +0.019 C 
ATOM     17  C   UNL     1       7.620  10.400   0.000  0.00  0.00    +0.019 C 
ATOM     18  C   UNL     1       6.120  11.900   0.000  0.00  0.00    +0.019 C 
ENDBRANCH  14  15
ENDBRANCH  13  14
ENDBRANCH  11  12
BRANCH   1   2
ATOM      2  O   UNL     1      12.615   3.650   0.000  0.00  0.00    -0.456 OA
BRANCH   2   3
ATOM      3  C   UNL     1      12.615   2.150   0.000  0.00  0.00    +0.128 A 
ATOM      4  C   UNL     1      13.914   1.400   0.000  0.00  0.00    +0.046 A 
ATOM      5  C   UNL     1      13.914  -0.101   0.000  0.00  0.00    +0.004 A 
ATOM      6  C   UNL     1      12.615  -0.851   0.000  0.00  0.00    +0.000 A 
ATOM      7  C   UNL     1      11.316  -0.101   0.000  0.00  0.00    +0.004 A 
ATOM      8  C   UNL     1      11.316   1.400   0.000  0.00  0.00    +0.046 A 
ENDBRANCH   2   3
ENDBRANCH   1   2
TORSDOF 5