REMARK  Name = 62665
REMARK  0 active torsions:
REMARK  status: ('A' for Active; 'I' for Inactive)
REMARK                            x       y       z     vdW  Elec       q    Type
REMARK                         _______ _______ _______ _____ _____    ______ ____
ROOT
ATOM      1 CL   UNL     1       0.750   1.890   0.000  0.00  0.00    -0.041 Cl
ATOM      2  C   UNL     1       2.049   2.640   0.000  0.00  0.00    +0.226 A 
ATOM      3  N   UNL     1       3.348   1.890   0.000  0.00  0.00    -0.198 NA
ATOM      4  C   UNL     1       4.647   2.640   0.000  0.00  0.00    +0.165 A 
ATOM      5  C   UNL     1       4.647   4.140   0.000  0.00  0.00    +0.123 A 
ATOM      6  C   UNL     1       3.348   4.890   0.000  0.00  0.00    +0.159 A 
ATOM      7 CL   UNL     1       3.348   6.390   0.000  0.00  0.00    -0.060 Cl
ATOM      8  N   UNL     1       6.074   4.604   0.000  0.00  0.00    -0.302 N 
ATOM      9  H   UNL     1       6.537   6.030   0.000  0.00  0.00    +0.171 HD
ATOM     10  C   UNL     1       6.955   3.390   0.000  0.00  0.00    +0.326 A 
ATOM     11  O   UNL     1       8.455   3.390   0.000  0.00  0.00    -0.247 OA
ATOM     12  N   UNL     1       6.074   2.177   0.000  0.00  0.00    -0.291 N 
ATOM     13  H   UNL     1       6.537   0.750   0.000  0.00  0.00    +0.172 HD
ATOM     14  N   UNL     1       2.049   4.140   0.000  0.00  0.00    -0.204 NA
ENDROOT
TORSDOF 0