REMARK  Name = 641396
REMARK  3 active torsions:
REMARK  status: ('A' for Active; 'I' for Inactive)
REMARK    1  A    between atoms: C_2  and  O_21
REMARK    2  A    between atoms: N_9  and  C_10
REMARK    3  A    between atoms: O_21  and  C_22
REMARK                            x       y       z     vdW  Elec       q    Type
REMARK                         _______ _______ _______ _____ _____    ______ ____
ROOT
ATOM      1  C   UNL     1      -8.257   3.059   0.000  0.00  0.00    +0.056 A 
ATOM      2  C   UNL     1      -7.647   1.689   0.000  0.00  0.00    +0.011 A 
ATOM      3  C   UNL     1      -6.221   1.226   0.000  0.00  0.00    +0.008 A 
ATOM      4  C   UNL     1      -4.922   1.976   0.000  0.00  0.00    +0.011 A 
ATOM      5  C   UNL     1      -3.623   1.226   0.000  0.00  0.00    +0.013 A 
ATOM      6  C   UNL     1      -3.623  -0.275   0.000  0.00  0.00    +0.034 A 
ATOM      7  C   UNL     1      -2.324  -1.025   0.000  0.00  0.00    +0.187 C 
ATOM      8  O   UNL     1      -1.025  -0.275   0.000  0.00  0.00    -0.287 OA
ATOM      9  C   UNL     1      -2.324  -2.525   0.000  0.00  0.00    +0.055 C 
ATOM     10  C   UNL     1      -3.623  -3.275   0.000  0.00  0.00    +0.055 C 
ATOM     11  C   UNL     1      -4.922  -2.525   0.000  0.00  0.00    +0.189 C 
ATOM     12  O   UNL     1      -6.221  -3.275   0.000  0.00  0.00    -0.287 OA
ATOM     13  C   UNL     1      -4.922  -1.025   0.000  0.00  0.00    +0.056 A 
ATOM     14  C   UNL     1      -6.221  -0.275   0.000  0.00  0.00    +0.061 A 
ATOM     15  N   UNL     1      -7.647  -0.738   0.000  0.00  0.00    -0.342 N 
ATOM     16  C   UNL     1      -8.111  -2.165   0.000  0.00  0.00    +0.149 C 
ATOM     17  C   UNL     1      -8.529   0.475   0.000  0.00  0.00    +0.050 A 
ATOM     18  C   UNL     1     -10.021   0.632   0.000  0.00  0.00    +0.030 A 
ATOM     19  C   UNL     1     -10.631   2.003   0.000  0.00  0.00    +0.047 A 
ATOM     20  C   UNL     1      -9.749   3.216   0.000  0.00  0.00    +0.121 A 
ENDROOT
BRANCH  20  21
ATOM     21  O   UNL     1     -10.359   4.586   0.000  0.00  0.00    -0.495 OA
ATOM     22  C   UNL     1     -11.851   4.743   0.000  0.00  0.00    +0.277 C 
ENDBRANCH  20  21
TORSDOF 1