REMARK  Name = 637290
REMARK  7 active torsions:
REMARK  status: ('A' for Active; 'I' for Inactive)
REMARK    1  A    between atoms: C_1  and  C_16
REMARK    2  A    between atoms: C_5  and  C_7
REMARK    3  A    between atoms: C_8  and  C_9
REMARK    4  A    between atoms: C_8  and  C_10
REMARK    5  A    between atoms: C_9  and  O_13
REMARK    6  A    between atoms: O_13  and  C_14
REMARK    7  A    between atoms: C_14  and  C_15
REMARK                            x       y       z     vdW  Elec       q    Type
REMARK                         _______ _______ _______ _____ _____    ______ ____
ROOT
ATOM      5  C   UNL     1      -7.245  -2.250   0.000  0.00  0.00    +0.034 C 
ATOM      6  C   UNL     1      -5.946  -3.000   0.000  0.00  0.00    +0.136 C 
ENDROOT
BRANCH   5   4
ATOM      1  C   UNL     1     -11.142  -3.000   0.000  0.00  0.00    -0.050 A 
ATOM      2  C   UNL     1     -12.441  -2.250   0.000  0.00  0.00    +0.044 C 
ATOM      3  C   UNL     1      -9.843  -2.250   0.000  0.00  0.00    +0.011 A 
ATOM      4  C   UNL     1      -8.544  -3.000   0.000  0.00  0.00    -0.023 A 
ATOM     14  C   UNL     1      -8.544  -4.500   0.000  0.00  0.00    +0.008 A 
ATOM     15  C   UNL     1      -9.843  -5.250   0.000  0.00  0.00    +0.001 A 
ATOM     16  C   UNL     1     -11.142  -4.500   0.000  0.00  0.00    +0.003 A 
ENDBRANCH   5   4
BRANCH   6   7
ATOM      7  C   UNL     1      -5.946  -4.500   0.000  0.00  0.00    +0.106 C 
ATOM      8  N   UNL     1      -5.946  -6.000   0.000  0.00  0.00    -0.191 NA
ENDBRANCH   6   7
BRANCH   6   9
ATOM      9  C   UNL     1      -4.647  -2.250   0.000  0.00  0.00    +0.350 C 
ATOM     13  O   UNL     1      -4.647  -0.750   0.000  0.00  0.00    -0.244 OA
BRANCH   9  10
ATOM     10  O   UNL     1      -3.348  -3.000   0.000  0.00  0.00    -0.461 OA
BRANCH  10  11
ATOM     11  C   UNL     1      -2.049  -2.250   0.000  0.00  0.00    +0.229 C 
ATOM     12  C   UNL     1      -0.750  -3.000   0.000  0.00  0.00    +0.048 C 
ENDBRANCH  10  11
ENDBRANCH   9  10
ENDBRANCH   6   9
TORSDOF 5