REMARK  Name = 89723
REMARK  7 active torsions:
REMARK  status: ('A' for Active; 'I' for Inactive)
REMARK    1  A    between atoms: C_1  and  N_9
REMARK    2  A    between atoms: C_3  and  O_14
REMARK    3  A    between atoms: C_5  and  O_7
REMARK    4  A    between atoms: C_6  and  S_10
REMARK    5  A    between atoms: O_7  and  C_8
REMARK    6  A    between atoms: S_10  and  N_13
REMARK    7  A    between atoms: O_14  and  C_15
REMARK                            x       y       z     vdW  Elec       q    Type
REMARK                         _______ _______ _______ _____ _____    ______ ____
ROOT
ATOM      1  C   UNL     1      -0.387   8.330   0.000  0.00  0.00    +0.070 A 
ATOM      5  C   UNL     1       0.912   7.580   0.000  0.00  0.00    +0.143 A 
ATOM      8  C   UNL     1       0.912   6.080   0.000  0.00  0.00    +0.079 A 
ATOM      9  C   UNL     1      -0.387   5.330   0.000  0.00  0.00    +0.150 A 
ATOM     16  C   UNL     1      -1.686   6.080   0.000  0.00  0.00    +0.148 A 
ATOM     19  C   UNL     1      -1.686   7.580   0.000  0.00  0.00    +0.074 A 
ENDROOT
BRANCH   1   2
ATOM      2  N   UNL     1      -0.387   9.830   0.000  0.00  0.00    -0.355 N 
ATOM      3  H   UNL     1      -1.240  10.322   0.000  0.00  0.00    +0.142 HD
ATOM      4  H   UNL     1       0.466  10.322   0.000  0.00  0.00    +0.142 HD
ENDBRANCH   1   2
BRANCH   9  10
ATOM     10  S   UNL     1      -0.387   3.830   0.000  0.00  0.00    +0.060 S 
ATOM     14  O   UNL     1      -0.387   2.330   0.000  0.00  0.00    -0.153 OA
ATOM     15  O   UNL     1      -1.887   3.830   0.000  0.00  0.00    -0.153 OA
BRANCH  10  11
ATOM     11  N   UNL     1       1.113   3.830   0.000  0.00  0.00    -0.203 NA
ATOM     12  H   UNL     1       1.623   4.713   0.000  0.00  0.00    +0.144 HD
ATOM     13  H   UNL     1       1.623   2.947   0.000  0.00  0.00    +0.144 HD
ENDBRANCH  10  11
ENDBRANCH   9  10
BRANCH   5   6
ATOM      6  O   UNL     1       2.211   8.330   0.000  0.00  0.00    -0.493 OA
ATOM      7  C   UNL     1       3.510   7.580   0.000  0.00  0.00    +0.277 C 
ENDBRANCH   5   6
BRANCH  16  17
ATOM     17  O   UNL     1      -2.985   5.330   0.000  0.00  0.00    -0.493 OA
ATOM     18  C   UNL     1      -4.284   6.080   0.000  0.00  0.00    +0.277 C 
ENDBRANCH  16  17
TORSDOF 5