REMARK  Name = 89201
REMARK  8 active torsions:
REMARK  status: ('A' for Active; 'I' for Inactive)
REMARK    1  A    between atoms: N_3  and  C_26
REMARK    2  A    between atoms: N_3  and  C_28
REMARK    3  A    between atoms: O_4  and  C_22
REMARK    4  A    between atoms: O_4  and  C_29
REMARK    5  A    between atoms: C_8  and  O_32
REMARK    6  A    between atoms: C_9  and  C_31
REMARK    7  A    between atoms: C_25  and  C_26
REMARK    8  A    between atoms: C_27  and  C_28
REMARK                            x       y       z     vdW  Elec       q    Type
REMARK                         _______ _______ _______ _____ _____    ______ ____
ROOT
ATOM      8  C   UNL     1      -3.795 -11.159   0.000  0.00  0.00    +0.134 A 
ATOM      9  C   UNL     1      -2.327 -11.471   0.000  0.00  0.00    +0.050 A 
ATOM     10  C   UNL     1      -1.324 -10.356   0.000  0.00  0.00    -0.040 A 
ATOM     11  C   UNL     1       0.144 -10.668   0.000  0.00  0.00    +0.036 C 
ATOM     12  C   UNL     1       1.147  -9.553   0.000  0.00  0.00    +0.009 C 
ATOM     13  C   UNL     1       0.684  -8.127   0.000  0.00  0.00    +0.000 C 
ATOM     14  C   UNL     1      -0.783  -7.815   0.000  0.00  0.00    +0.023 C 
ATOM     15  C   UNL     1      -1.247  -6.388   0.000  0.00  0.00    +0.009 C 
ATOM     16  C   UNL     1      -0.243  -5.274   0.000  0.00  0.00    +0.010 C 
ATOM     17  C   UNL     1       1.224  -5.586   0.000  0.00  0.00    -0.003 C 
ATOM     18  C   UNL     1       0.912  -4.118   0.000  0.00  0.00    +0.014 C 
ATOM     19  C   UNL     1       2.438  -4.704   0.000  0.00  0.00    +0.121 C 
ATOM     22  C   UNL     1       3.651  -5.586   0.000  0.00  0.00    +0.032 C 
ATOM     23  C   UNL     1       3.188  -7.012   0.000  0.00  0.00    +0.007 C 
ATOM     24  C   UNL     1       1.688  -7.012   0.000  0.00  0.00    +0.001 C 
ATOM     25  C   UNL     1      -1.787  -8.930   0.000  0.00  0.00    -0.041 A 
ATOM     26  C   UNL     1      -3.254  -8.618   0.000  0.00  0.00    +0.008 A 
ATOM     27  C   UNL     1      -4.258  -9.733   0.000  0.00  0.00    +0.047 A 
ENDROOT
BRANCH  19  20
ATOM     20  O   UNL     1       2.438  -3.204   0.000  0.00  0.00    -0.391 OA
ATOM     21  H   UNL     1       3.278  -2.719   0.000  0.00  0.00    +0.210 HD
ENDBRANCH  19  20
BRANCH   8   7
ATOM      7  O   UNL     1      -4.798 -12.274   0.000  0.00  0.00    -0.411 OA
BRANCH   7   5
ATOM      4  N   UNL     1      -7.269 -13.077   0.000  0.00  0.00    -0.265 N 
ATOM      5  C   UNL     1      -6.265 -11.962   0.000  0.00  0.00    +0.408 C 
ATOM      6  O   UNL     1      -6.729 -10.536   0.000  0.00  0.00    -0.226 OA
BRANCH   4   3
ATOM      3  C   UNL     1      -8.736 -12.765   0.000  0.00  0.00    +0.127 C 
BRANCH   3   2
ATOM      1 CL   UNL     1      -8.196 -10.224   0.000  0.00  0.00    -0.124 Cl
ATOM      2  C   UNL     1      -9.200 -11.338   0.000  0.00  0.00    +0.127 C 
ENDBRANCH   3   2
ENDBRANCH   4   3
BRANCH   4  28
ATOM     28  C   UNL     1      -6.806 -14.503   0.000  0.00  0.00    +0.127 C 
BRANCH  28  29
ATOM     29  C   UNL     1      -7.809 -15.618   0.000  0.00  0.00    +0.127 C 
ATOM     30 CL   UNL     1      -9.277 -15.306   0.000  0.00  0.00    -0.124 Cl
ENDBRANCH  28  29
ENDBRANCH   4  28
ENDBRANCH   7   5
ENDBRANCH   8   7
TORSDOF 7