REMARK  Name = 89759
REMARK  7 active torsions:
REMARK  status: ('A' for Active; 'I' for Inactive)
REMARK    1  A    between atoms: C_3  and  C_17
REMARK    2  A    between atoms: C_4  and  O_18
REMARK    3  A    between atoms: C_9  and  C_15
REMARK    4  A    between atoms: C_10  and  O_14
REMARK    5  A    between atoms: C_11  and  O_13
REMARK    6  A    between atoms: C_15  and  C_17
REMARK    7  A    between atoms: O_18  and  C_19
REMARK                            x       y       z     vdW  Elec       q    Type
REMARK                         _______ _______ _______ _____ _____    ______ ____
ROOT
ATOM      4  C   UNL     1       7.520  -0.475   0.000  0.00  0.00    +0.171 C 
ATOM      5  O   UNL     1       8.819   0.275   0.000  0.00  0.00    -0.292 OA
ENDROOT
BRANCH   4   6
ATOM      6  C   UNL     1       6.221   0.275   0.000  0.00  0.00    +0.059 A 
ATOM      7  C   UNL     1       4.922  -0.475   0.000  0.00  0.00    +0.131 A 
ATOM     10  C   UNL     1       3.623   0.275   0.000  0.00  0.00    +0.091 A 
ATOM     11  C   UNL     1       3.623   1.775   0.000  0.00  0.00    +0.120 A 
ATOM     14  C   UNL     1       4.922   2.525   0.000  0.00  0.00    +0.046 A 
ATOM     15  C   UNL     1       6.221   1.775   0.000  0.00  0.00    +0.018 A 
BRANCH   7   8
ATOM      8  O   UNL     1       4.922  -1.976   0.000  0.00  0.00    -0.506 OA
ATOM      9  H   UNL     1       4.110  -2.444   0.000  0.00  0.00    +0.292 HD
ENDBRANCH   7   8
BRANCH  11  12
ATOM     12  O   UNL     1       2.324   2.525   0.000  0.00  0.00    -0.507 OA
ATOM     13  H   UNL     1       2.324   3.461   0.000  0.00  0.00    +0.292 HD
ENDBRANCH  11  12
ENDBRANCH   4   6
BRANCH   4   3
ATOM      3  C   UNL     1       7.520  -1.976   0.000  0.00  0.00    +0.114 C 
BRANCH   3   2
ATOM      1  C   UNL     1      10.118  -1.976   0.000  0.00  0.00    +0.007 A 
ATOM      2  C   UNL     1       8.819  -2.725   0.000  0.00  0.00    -0.040 A 
ATOM     16  C   UNL     1       8.819  -4.226   0.000  0.00  0.00    +0.007 A 
ATOM     17  C   UNL     1      10.118  -4.976   0.000  0.00  0.00    +0.046 A 
ATOM     18  C   UNL     1      11.417  -4.226   0.000  0.00  0.00    +0.120 A 
ATOM     21  C   UNL     1      11.417  -2.725   0.000  0.00  0.00    +0.046 A 
BRANCH  18  19
ATOM     19  O   UNL     1      12.716  -4.976   0.000  0.00  0.00    -0.495 OA
ATOM     20  C   UNL     1      14.015  -4.226   0.000  0.00  0.00    +0.277 C 
ENDBRANCH  18  19
ENDBRANCH   3   2
ENDBRANCH   4   3
TORSDOF 6