REMARK  Name = 91368
REMARK  9 active torsions:
REMARK  status: ('A' for Active; 'I' for Inactive)
REMARK    1  A    between atoms: N_1  and  C_26
REMARK    2  A    between atoms: N_2  and  C_6
REMARK    3  A    between atoms: C_16  and  O_22
REMARK    4  A    between atoms: C_19  and  O_20
REMARK    5  A    between atoms: O_20  and  C_21
REMARK    6  A    between atoms: O_22  and  C_23
REMARK    7  A    between atoms: C_23  and  C_24
REMARK    8  A    between atoms: C_24  and  O_25
REMARK    9  A    between atoms: C_24  and  C_26
REMARK                            x       y       z     vdW  Elec       q    Type
REMARK                         _______ _______ _______ _____ _____    ______ ____
ROOT
ATOM      2  C   UNL     1       6.770   7.774   0.000  0.00  0.00    +0.119 C 
ENDROOT
BRANCH   2   1
ATOM      1  N   UNL     1       8.069   8.524   0.000  0.00  0.00    -0.297 NA
ATOM     16  C   UNL     1       9.368   7.774   0.000  0.00  0.00    +0.103 C 
ATOM     17  C   UNL     1      10.667   8.524   0.000  0.00  0.00    +0.120 C 
ATOM     18  N   UNL     1      10.667  10.025   0.000  0.00  0.00    -0.327 N 
ATOM     19  C   UNL     1       9.368  10.775   0.000  0.00  0.00    +0.120 C 
ATOM     27  C   UNL     1       8.069  10.025   0.000  0.00  0.00    +0.103 C 
BRANCH  18  20
ATOM     20  C   UNL     1      11.966  10.775   0.000  0.00  0.00    +0.030 A 
ATOM     21  C   UNL     1      13.265  10.025   0.000  0.00  0.00    +0.024 A 
ATOM     22  C   UNL     1      14.564  10.775   0.000  0.00  0.00    +0.022 A 
ATOM     23  C   UNL     1      14.564  12.275   0.000  0.00  0.00    +0.041 A 
ATOM     24  C   UNL     1      13.265  13.025   0.000  0.00  0.00    +0.022 A 
ATOM     25 CL   UNL     1      15.863  13.025   0.000  0.00  0.00    -0.084 Cl
ATOM     26  C   UNL     1      11.966  12.275   0.000  0.00  0.00    +0.024 A 
ENDBRANCH  18  20
ENDBRANCH   2   1
BRANCH   2   3
ATOM      3  C   UNL     1       5.471   8.524   0.000  0.00  0.00    +0.166 C 
BRANCH   3   4
ATOM      4  O   UNL     1       5.471  10.025   0.000  0.00  0.00    -0.387 OA
ATOM      5  H   UNL     1       6.311  10.509   0.000  0.00  0.00    +0.210 HD
ENDBRANCH   3   4
BRANCH   3   6
ATOM      6  C   UNL     1       4.172   7.774   0.000  0.00  0.00    +0.261 C 
BRANCH   6   7
ATOM      7  O   UNL     1       4.172   6.274   0.000  0.00  0.00    -0.489 OA
BRANCH   7   8
ATOM      8  C   UNL     1       2.873   5.524   0.000  0.00  0.00    +0.124 A 
ATOM      9  C   UNL     1       2.873   4.024   0.000  0.00  0.00    +0.091 A 
ATOM     10  C   UNL     1       1.574   3.275   0.000  0.00  0.00    +0.124 A 
ATOM     13  C   UNL     1       0.275   4.024   0.000  0.00  0.00    +0.046 A 
ATOM     14  C   UNL     1       0.275   5.524   0.000  0.00  0.00    +0.007 A 
ATOM     15  C   UNL     1       1.573   6.274   0.000  0.00  0.00    +0.046 A 
BRANCH  10  11
ATOM     11  O   UNL     1       1.574   1.775   0.000  0.00  0.00    -0.495 OA
ATOM     12  C   UNL     1       0.275   1.025   0.000  0.00  0.00    +0.277 C 
ENDBRANCH  10  11
ENDBRANCH   7   8
ENDBRANCH   6   7
ENDBRANCH   3   6
ENDBRANCH   2   3
TORSDOF 8