REMARK  Name = 91397
REMARK  7 active torsions:
REMARK  status: ('A' for Active; 'I' for Inactive)
REMARK    1  A    between atoms: N_1  and  C_28
REMARK    2  A    between atoms: N_2  and  C_15
REMARK    3  A    between atoms: C_12  and  O_24
REMARK    4  A    between atoms: O_24  and  C_25
REMARK    5  A    between atoms: C_25  and  C_26
REMARK    6  A    between atoms: C_26  and  O_27
REMARK    7  A    between atoms: C_26  and  C_28
REMARK                            x       y       z     vdW  Elec       q    Type
REMARK                         _______ _______ _______ _____ _____    ______ ____
ROOT
ATOM      3  C   UNL     1      -9.368  -7.774   0.000  0.00  0.00    +0.166 C 
ENDROOT
BRANCH   3   4
ATOM      4  O   UNL     1      -9.368  -6.274   0.000  0.00  0.00    -0.387 OA
ATOM      5  H   UNL     1      -8.528  -5.789   0.000  0.00  0.00    +0.210 HD
ENDBRANCH   3   4
BRANCH   3   2
ATOM      2  C   UNL     1      -8.069  -8.524   0.000  0.00  0.00    +0.119 C 
BRANCH   2   1
ATOM      1  N   UNL     1      -6.770  -7.774   0.000  0.00  0.00    -0.297 NA
ATOM     18  C   UNL     1      -5.471  -8.524   0.000  0.00  0.00    +0.103 C 
ATOM     19  C   UNL     1      -4.172  -7.774   0.000  0.00  0.00    +0.120 C 
ATOM     20  N   UNL     1      -4.172  -6.274   0.000  0.00  0.00    -0.327 N 
ATOM     21  C   UNL     1      -5.471  -5.524   0.000  0.00  0.00    +0.120 C 
ATOM     29  C   UNL     1      -6.770  -6.274   0.000  0.00  0.00    +0.103 C 
BRANCH  20  22
ATOM     22  C   UNL     1      -2.873  -5.524   0.000  0.00  0.00    +0.030 A 
ATOM     23  C   UNL     1      -1.573  -6.274   0.000  0.00  0.00    +0.024 A 
ATOM     24  C   UNL     1      -0.275  -5.524   0.000  0.00  0.00    +0.022 A 
ATOM     25  C   UNL     1      -0.275  -4.024   0.000  0.00  0.00    +0.041 A 
ATOM     26  C   UNL     1      -1.573  -3.275   0.000  0.00  0.00    +0.022 A 
ATOM     27 CL   UNL     1       1.025  -3.275   0.000  0.00  0.00    -0.084 Cl
ATOM     28  C   UNL     1      -2.873  -4.024   0.000  0.00  0.00    +0.024 A 
ENDBRANCH  20  22
ENDBRANCH   2   1
ENDBRANCH   3   2
BRANCH   3   6
ATOM      6  C   UNL     1     -10.667  -8.524   0.000  0.00  0.00    +0.261 C 
BRANCH   6   7
ATOM      7  O   UNL     1     -10.667 -10.025   0.000  0.00  0.00    -0.489 OA
BRANCH   7   8
ATOM      8  C   UNL     1     -11.966 -10.775   0.000  0.00  0.00    +0.128 A 
ATOM      9  C   UNL     1     -11.966 -12.275   0.000  0.00  0.00    +0.024 A 
ATOM     10  C   UNL     1     -10.667 -13.025   0.000  0.00  0.00    +0.012 A 
ATOM     11  C   UNL     1     -10.667 -14.525   0.000  0.00  0.00    +0.001 A 
ATOM     12  C   UNL     1     -11.966 -15.275   0.000  0.00  0.00    +0.001 A 
ATOM     13  C   UNL     1     -13.265 -14.525   0.000  0.00  0.00    +0.008 A 
ATOM     14  C   UNL     1     -13.265 -13.025   0.000  0.00  0.00    -0.014 A 
ATOM     15  C   UNL     1     -14.564 -12.275   0.000  0.00  0.00    +0.009 A 
ATOM     16  C   UNL     1     -14.564 -10.775   0.000  0.00  0.00    +0.004 A 
ATOM     17  C   UNL     1     -13.265 -10.025   0.000  0.00  0.00    +0.046 A 
ENDBRANCH   7   8
ENDBRANCH   6   7
ENDBRANCH   3   6
TORSDOF 7