REMARK  Name = 88811
REMARK  4 active torsions:
REMARK  status: ('A' for Active; 'I' for Inactive)
REMARK    1  A    between atoms: O_1  and  C_13
REMARK    2  A    between atoms: O_1  and  C_14
REMARK    3  A    between atoms: C_6  and  C_9
REMARK    4  A    between atoms: C_14  and  C_15
REMARK                            x       y       z     vdW  Elec       q    Type
REMARK                         _______ _______ _______ _____ _____    ______ ____
ROOT
ATOM      5  C   UNL     1      -1.366  -8.365   0.000  0.00  0.00    +0.218 A 
ATOM      6  C   UNL     1      -2.665  -7.615   0.000  0.00  0.00    +0.087 A 
ATOM      7  C   UNL     1      -2.665  -6.115   0.000  0.00  0.00    +0.118 A 
ATOM      8  N   UNL     1      -1.366  -5.365   0.000  0.00  0.00    -0.235 NA
ATOM      9  C   UNL     1      -0.067  -6.115   0.000  0.00  0.00    +0.163 A 
ATOM     16  N   UNL     1      -0.067  -7.615   0.000  0.00  0.00    -0.193 NA
ENDROOT
BRANCH   9  10
ATOM     10  C   UNL     1       1.232  -5.365   0.000  0.00  0.00    +0.019 A 
ATOM     11  C   UNL     1       2.531  -6.115   0.000  0.00  0.00    +0.011 A 
ATOM     12  C   UNL     1       3.830  -5.365   0.000  0.00  0.00    +0.001 A 
ATOM     13  C   UNL     1       3.830  -3.865   0.000  0.00  0.00    +0.000 A 
ATOM     14  C   UNL     1       2.531  -3.115   0.000  0.00  0.00    +0.001 A 
ATOM     15  C   UNL     1       1.232  -3.865   0.000  0.00  0.00    +0.011 A 
ENDBRANCH   9  10
BRANCH   5   1
ATOM      1  O   UNL     1      -1.366  -9.865   0.000  0.00  0.00    -0.472 OA
BRANCH   1   2
ATOM      2  C   UNL     1      -0.067 -10.615   0.000  0.00  0.00    +0.258 C 
BRANCH   2   3
ATOM      3  C   UNL     1       1.232  -9.865   0.000  0.00  0.00    +0.006 C 
ATOM      4  C   UNL     1       2.531 -10.615   0.000  0.00  0.00    +0.007 C 
ENDBRANCH   2   3
ENDBRANCH   1   2
ENDBRANCH   5   1
TORSDOF 4