REMARK  Name = 88402
REMARK  4 active torsions:
REMARK  status: ('A' for Active; 'I' for Inactive)
REMARK    1  A    between atoms: P_4  and  O_7
REMARK    2  A    between atoms: O_7  and  C_9
REMARK    3  A    between atoms: C_18  and  O_20
REMARK    4  A    between atoms: O_20  and  C_21
REMARK                            x       y       z     vdW  Elec       q    Type
REMARK                         _______ _______ _______ _____ _____    ______ ____
ROOT
ATOM      1  N   UNL     1      -6.319   3.765   0.000  0.00  0.00    -0.273 N 
ATOM      2  H   UNL     1      -4.949   4.375   0.000  0.00  0.00    +0.156 HD
ATOM      3  C   UNL     1      -7.618   4.515   0.000  0.00  0.00    +0.056 A 
ATOM      4  C   UNL     1      -8.733   3.511   0.000  0.00  0.00    +0.059 A 
ATOM      5  C   UNL     1     -10.159   3.975   0.000  0.00  0.00    +0.070 A 
ATOM      6  C   UNL     1     -10.471   5.442   0.000  0.00  0.00    +0.122 A 
ATOM      9  C   UNL     1      -9.356   6.446   0.000  0.00  0.00    +0.047 A 
ATOM     10  N   UNL     1      -8.123   2.141   0.000  0.00  0.00    -0.273 N 
ATOM     11  H   UNL     1      -8.873   0.842   0.000  0.00  0.00    +0.156 HD
ATOM     12  C   UNL     1      -7.930   5.982   0.000  0.00  0.00    +0.029 A 
ATOM     13  P   UNL     1      -6.631   2.298   0.000  0.00  0.00    +0.265 P 
ATOM     21  S   UNL     1      -5.139   2.141   0.000  0.00  0.00    +0.016 S 
ENDROOT
BRANCH   6   7
ATOM      7  O   UNL     1     -11.898   5.906   0.000  0.00  0.00    -0.495 OA
ATOM      8  C   UNL     1     -12.210   7.373   0.000  0.00  0.00    +0.277 C 
ENDBRANCH   6   7
BRANCH  13  14
ATOM     14  O   UNL     1      -6.631   0.798   0.000  0.00  0.00    -0.438 OA
BRANCH  14  15
ATOM     15  C   UNL     1      -5.332   0.048   0.000  0.00  0.00    +0.128 A 
ATOM     16  C   UNL     1      -5.332  -1.452   0.000  0.00  0.00    +0.046 A 
ATOM     17  C   UNL     1      -4.033  -2.202   0.000  0.00  0.00    +0.004 A 
ATOM     18  C   UNL     1      -2.734  -1.452   0.000  0.00  0.00    +0.000 A 
ATOM     19  C   UNL     1      -2.734   0.048   0.000  0.00  0.00    +0.004 A 
ATOM     20  C   UNL     1      -4.033   0.798   0.000  0.00  0.00    +0.046 A 
ENDBRANCH  14  15
ENDBRANCH  13  14
TORSDOF 3