REMARK  Name = 89720
REMARK  4 active torsions:
REMARK  status: ('A' for Active; 'I' for Inactive)
REMARK    1  A    between atoms: C_3  and  C_7
REMARK    2  A    between atoms: C_7  and  C_8
REMARK    3  A    between atoms: C_8  and  C_9
REMARK    4  A    between atoms: C_9  and  O_11
REMARK                            x       y       z     vdW  Elec       q    Type
REMARK                         _______ _______ _______ _____ _____    ______ ____
ROOT
ATOM      1  N   UNL     1      -1.025   4.774   0.000  0.00  0.00    -0.263 NA
ATOM      2  C   UNL     1      -1.025   3.275   0.000  0.00  0.00    +0.111 A 
ATOM      3  C   UNL     1       0.275   2.525   0.000  0.00  0.00    +0.020 A 
ATOM      4  C   UNL     1       1.574   3.275   0.000  0.00  0.00    +0.006 A 
ATOM      5  C   UNL     1       1.574   4.774   0.000  0.00  0.00    -0.029 A 
ATOM     12  C   UNL     1       0.275   5.524   0.000  0.00  0.00    +0.114 A 
ENDROOT
BRANCH   5   6
ATOM      6  C   UNL     1       2.873   5.524   0.000  0.00  0.00    +0.048 C 
BRANCH   6   7
ATOM      7  C   UNL     1       4.172   4.774   0.000  0.00  0.00    +0.125 C 
BRANCH   7   8
ATOM      8  C   UNL     1       5.471   5.524   0.000  0.00  0.00    +0.305 C 
ATOM     11  O   UNL     1       5.471   7.024   0.000  0.00  0.00    -0.251 OA
BRANCH   8   9
ATOM      9  O   UNL     1       6.770   4.774   0.000  0.00  0.00    -0.481 OA
ATOM     10  H   UNL     1       6.770   3.838   0.000  0.00  0.00    +0.295 HD
ENDBRANCH   8   9
ENDBRANCH   7   8
ENDBRANCH   6   7
ENDBRANCH   5   6
TORSDOF 4