REMARK  Name = 87822
REMARK  8 active torsions:
REMARK  status: ('A' for Active; 'I' for Inactive)
REMARK    1  A    between atoms: P_2  and  N_10
REMARK    2  A    between atoms: P_2  and  O_11
REMARK    3  A    between atoms: P_2  and  O_14
REMARK    4  A    between atoms: C_7  and  C_9
REMARK    5  A    between atoms: O_11  and  C_12
REMARK    6  A    between atoms: C_12  and  C_13
REMARK    7  A    between atoms: O_14  and  C_15
REMARK    8  A    between atoms: C_15  and  C_16
REMARK                            x       y       z     vdW  Elec       q    Type
REMARK                         _______ _______ _______ _____ _____    ______ ____
ROOT
ATOM      1  N   UNL     1      -8.544  -2.598   0.000  0.00  0.00    -0.240 NA
ATOM      2  C   UNL     1      -9.843  -3.348   0.000  0.00  0.00    +0.116 A 
ATOM      3  C   UNL     1      -9.843  -4.848   0.000  0.00  0.00    -0.032 A 
ATOM      4  C   UNL     1     -11.142  -5.598   0.000  0.00  0.00    +0.045 C 
ATOM      5  C   UNL     1      -8.544  -5.598   0.000  0.00  0.00    +0.008 A 
ATOM      6  C   UNL     1      -7.245  -4.848   0.000  0.00  0.00    +0.044 A 
ATOM      7  C   UNL     1      -7.245  -3.348   0.000  0.00  0.00    +0.127 A 
ATOM      8  N   UNL     1      -5.946  -2.598   0.000  0.00  0.00    -0.236 N 
ATOM      9  H   UNL     1      -5.946  -1.614   0.000  0.00  0.00    +0.159 HD
ENDROOT
BRANCH   8  10
ATOM     10  P   UNL     1      -4.647  -3.348   0.000  0.00  0.00    +0.428 P 
ATOM     17  O   UNL     1      -5.397  -4.647   0.000  0.00  0.00    -0.236 OA
BRANCH  10  11
ATOM     11  O   UNL     1      -3.348  -4.098   0.000  0.00  0.00    -0.294 OA
BRANCH  11  12
ATOM     12  C   UNL     1      -2.049  -3.348   0.000  0.00  0.00    +0.168 C 
ATOM     13  C   UNL     1      -0.750  -4.098   0.000  0.00  0.00    +0.035 C 
ENDBRANCH  11  12
ENDBRANCH  10  11
BRANCH  10  14
ATOM     14  O   UNL     1      -3.897  -2.049   0.000  0.00  0.00    -0.294 OA
BRANCH  14  15
ATOM     15  C   UNL     1      -4.647  -0.750   0.000  0.00  0.00    +0.168 C 
ATOM     16  C   UNL     1      -6.147  -0.750   0.000  0.00  0.00    +0.035 C 
ENDBRANCH  14  15
ENDBRANCH  10  14
ENDBRANCH   8  10
TORSDOF 5