REMARK  Name = 87084
REMARK  9 active torsions:
REMARK  status: ('A' for Active; 'I' for Inactive)
REMARK    1  A    between atoms: C_3  and  O_18
REMARK    2  A    between atoms: C_4  and  O_22
REMARK    3  A    between atoms: C_6  and  O_20
REMARK    4  A    between atoms: C_7  and  C_16
REMARK    5  A    between atoms: C_15  and  C_16
REMARK    6  A    between atoms: C_16  and  O_17
REMARK    7  A    between atoms: O_18  and  C_19
REMARK    8  A    between atoms: O_20  and  C_21
REMARK    9  A    between atoms: O_22  and  C_23
REMARK                            x       y       z     vdW  Elec       q    Type
REMARK                         _______ _______ _______ _____ _____    ______ ____
ROOT
ATOM      3  C   UNL     1      -6.274   1.025   0.000  0.00  0.00    +0.200 C 
ENDROOT
BRANCH   3   2
ATOM      1  S   UNL     1      -8.656   2.238   0.000  0.00  0.00    -0.069 S 
ATOM      2  C   UNL     1      -7.774   1.025   0.000  0.00  0.00    +0.112 A 
ATOM     18  N   UNL     1      -8.656  -0.189   0.000  0.00  0.00    -0.241 NA
ATOM     19  C   UNL     1     -10.083   0.275   0.000  0.00  0.00    +0.079 A 
ATOM     20  C   UNL     1     -11.382  -0.475   0.000  0.00  0.00    +0.029 A 
ATOM     21  C   UNL     1     -12.681   0.275   0.000  0.00  0.00    +0.002 A 
ATOM     22  C   UNL     1     -12.681   1.775   0.000  0.00  0.00    +0.001 A 
ATOM     23  C   UNL     1     -11.382   2.525   0.000  0.00  0.00    +0.017 A 
ATOM     24  C   UNL     1     -10.083   1.775   0.000  0.00  0.00    +0.039 A 
ENDBRANCH   3   2
BRANCH   3   6
ATOM      6  C   UNL     1      -5.524  -0.275   0.000  0.00  0.00    -0.006 A 
ATOM      7  C   UNL     1      -6.274  -1.574   0.000  0.00  0.00    +0.056 A 
ATOM      8  C   UNL     1      -5.524  -2.873   0.000  0.00  0.00    +0.166 A 
ATOM     11  C   UNL     1      -4.024  -2.873   0.000  0.00  0.00    +0.204 A 
ATOM     14  C   UNL     1      -3.275  -1.574   0.000  0.00  0.00    +0.166 A 
ATOM     17  C   UNL     1      -4.024  -0.275   0.000  0.00  0.00    +0.056 A 
BRANCH   8   9
ATOM      9  O   UNL     1      -6.274  -4.172   0.000  0.00  0.00    -0.491 OA
ATOM     10  C   UNL     1      -5.524  -5.471   0.000  0.00  0.00    +0.277 C 
ENDBRANCH   8   9
BRANCH  11  12
ATOM     12  O   UNL     1      -3.275  -4.172   0.000  0.00  0.00    -0.488 OA
ATOM     13  C   UNL     1      -4.024  -5.471   0.000  0.00  0.00    +0.277 C 
ENDBRANCH  11  12
BRANCH  14  15
ATOM     15  O   UNL     1      -1.775  -1.574   0.000  0.00  0.00    -0.491 OA
ATOM     16  C   UNL     1      -1.025  -0.275   0.000  0.00  0.00    +0.277 C 
ENDBRANCH  14  15
ENDBRANCH   3   6
BRANCH   3   4
ATOM      4  O   UNL     1      -5.524   2.324   0.000  0.00  0.00    -0.380 OA
ATOM      5  H   UNL     1      -4.555   2.323   0.000  0.00  0.00    +0.211 HD
ENDBRANCH   3   4
TORSDOF 6