REMARK  Name = 87838
REMARK  2 active torsions:
REMARK  status: ('A' for Active; 'I' for Inactive)
REMARK    1  A    between atoms: C_3  and  C_25
REMARK    2  A    between atoms: C_4  and  C_27
REMARK                            x       y       z     vdW  Elec       q    Type
REMARK                         _______ _______ _______ _____ _____    ______ ____
ROOT
ATOM      4  C   UNL     1       9.468   1.400   0.000  0.00  0.00    +0.072 C 
ATOM      5  C   UNL     1      10.767   2.150   0.000  0.00  0.00    +0.072 C 
ENDROOT
BRANCH   4   2
ATOM      1  N   UNL     1       6.870   1.400   0.000  0.00  0.00    -0.293 N 
ATOM      2  C   UNL     1       8.169   2.150   0.000  0.00  0.00    +0.240 C 
ATOM      3  O   UNL     1       8.169   3.650   0.000  0.00  0.00    -0.271 OA
ATOM     18  C   UNL     1       6.870  -0.100   0.000  0.00  0.00    +0.113 C 
ATOM     19  C   UNL     1       5.571  -0.851   0.000  0.00  0.00    +0.054 C 
ATOM     20  C   UNL     1       4.272  -0.101   0.000  0.00  0.00    -0.041 A 
ATOM     21  C   UNL     1       2.973  -0.851   0.000  0.00  0.00    +0.004 A 
ATOM     22  C   UNL     1       1.674  -0.101   0.000  0.00  0.00    +0.000 A 
ATOM     23  C   UNL     1       1.674   1.400   0.000  0.00  0.00    +0.000 A 
ATOM     24  C   UNL     1       2.973   2.150   0.000  0.00  0.00    +0.005 A 
ATOM     25  C   UNL     1       4.272   1.400   0.000  0.00  0.00    -0.027 A 
ATOM     26  C   UNL     1       5.571   2.150   0.000  0.00  0.00    +0.143 C 
ENDBRANCH   4   2
BRANCH   5   6
ATOM      6  C   UNL     1      12.066   1.400   0.000  0.00  0.00    +0.240 C 
ATOM      7  O   UNL     1      13.365   2.150   0.000  0.00  0.00    -0.271 OA
ATOM      8  N   UNL     1      12.066  -0.100   0.000  0.00  0.00    -0.293 N 
ATOM      9  C   UNL     1      10.767  -0.850   0.000  0.00  0.00    +0.113 C 
ATOM     10  C   UNL     1      10.767  -2.350   0.000  0.00  0.00    +0.054 C 
ATOM     11  C   UNL     1      12.066  -3.100   0.000  0.00  0.00    -0.041 A 
ATOM     12  C   UNL     1      12.066  -4.600   0.000  0.00  0.00    +0.004 A 
ATOM     13  C   UNL     1      13.365  -5.350   0.000  0.00  0.00    +0.000 A 
ATOM     14  C   UNL     1      14.664  -4.600   0.000  0.00  0.00    +0.000 A 
ATOM     15  C   UNL     1      14.664  -3.100   0.000  0.00  0.00    +0.005 A 
ATOM     16  C   UNL     1      13.365  -2.350   0.000  0.00  0.00    -0.027 A 
ATOM     17  C   UNL     1      13.365  -0.850   0.000  0.00  0.00    +0.143 C 
ENDBRANCH   5   6
TORSDOF 2