REMARK  Name = 9032
REMARK  4 active torsions:
REMARK  status: ('A' for Active; 'I' for Inactive)
REMARK    1  A    between atoms: N_1  and  C_8
REMARK    2  A    between atoms: N_1  and  C_11
REMARK    3  A    between atoms: N_2  and  C_16
REMARK    4  A    between atoms: N_2  and  C_23
REMARK                            x       y       z     vdW  Elec       q    Type
REMARK                         _______ _______ _______ _____ _____    ______ ____
ROOT
ATOM      1  N   UNL     1       1.379  -5.637   0.000  0.00  0.00    -0.224 N 
ATOM      2  C   UNL     1      -0.375  -6.649   0.000  0.00  0.00    +0.322 C 
ATOM      3  O   UNL     1      -1.674  -5.899   0.000  0.00  0.00    -0.251 OA
ATOM      4  N   UNL     1      -0.375  -8.675   0.000  0.00  0.00    -0.224 N 
ENDROOT
BRANCH   4   5
ATOM      5  C   UNL     1       0.924  -9.425   0.000  0.00  0.00    +0.043 A 
ATOM      6  C   UNL     1       2.223  -8.675   0.000  0.00  0.00    +0.024 A 
ATOM      7  C   UNL     1       3.522  -9.425   0.000  0.00  0.00    +0.002 A 
ATOM      8  C   UNL     1       3.522 -10.925   0.000  0.00  0.00    +0.000 A 
ATOM      9  C   UNL     1       2.223 -11.675   0.000  0.00  0.00    +0.002 A 
ATOM     10  C   UNL     1       0.924 -10.925   0.000  0.00  0.00    +0.024 A 
ENDBRANCH   4   5
BRANCH   4  11
ATOM     11  C   UNL     1      -1.674  -9.425   0.000  0.00  0.00    +0.043 A 
ATOM     12  C   UNL     1      -1.674 -10.925   0.000  0.00  0.00    +0.024 A 
ATOM     13  C   UNL     1      -2.973 -11.675   0.000  0.00  0.00    +0.002 A 
ATOM     14  C   UNL     1      -4.272 -10.925   0.000  0.00  0.00    +0.000 A 
ATOM     15  C   UNL     1      -4.272  -9.425   0.000  0.00  0.00    +0.002 A 
ATOM     16  C   UNL     1      -2.973  -8.675   0.000  0.00  0.00    +0.024 A 
ENDBRANCH   4  11
BRANCH   1  17
ATOM     17  C   UNL     1       2.678  -6.387   0.000  0.00  0.00    +0.043 A 
ATOM     18  C   UNL     1       2.678  -7.887   0.000  0.00  0.00    +0.024 A 
ATOM     19  C   UNL     1       3.977  -8.637   0.000  0.00  0.00    +0.002 A 
ATOM     20  C   UNL     1       5.276  -7.887   0.000  0.00  0.00    +0.000 A 
ATOM     21  C   UNL     1       5.276  -6.387   0.000  0.00  0.00    +0.002 A 
ATOM     22  C   UNL     1       3.977  -5.637   0.000  0.00  0.00    +0.024 A 
ENDBRANCH   1  17
BRANCH   1  23
ATOM     23  C   UNL     1       1.379  -4.137   0.000  0.00  0.00    +0.043 A 
ATOM     24  C   UNL     1       0.080  -3.387   0.000  0.00  0.00    +0.024 A 
ATOM     25  C   UNL     1       0.080  -1.887   0.000  0.00  0.00    +0.002 A 
ATOM     26  C   UNL     1       1.379  -1.137   0.000  0.00  0.00    +0.000 A 
ATOM     27  C   UNL     1       2.678  -1.887   0.000  0.00  0.00    +0.002 A 
ATOM     28  C   UNL     1       2.678  -3.387   0.000  0.00  0.00    +0.024 A 
ENDBRANCH   1  23
TORSDOF 4