REMARK  Name = 91438
REMARK  6 active torsions:
REMARK  status: ('A' for Active; 'I' for Inactive)
REMARK    1  A    between atoms: C_3  and  C_7
REMARK    2  A    between atoms: C_7  and  C_8
REMARK    3  A    between atoms: C_8  and  C_10
REMARK    4  A    between atoms: C_10  and  O_12
REMARK    5  A    between atoms: O_12  and  C_13
REMARK    6  A    between atoms: C_13  and  C_14
REMARK                            x       y       z     vdW  Elec       q    Type
REMARK                         _______ _______ _______ _____ _____    ______ ____
ROOT
ATOM      6  C   UNL     1       5.571   2.150   0.000  0.00  0.00    +0.143 C 
ENDROOT
BRANCH   6   5
ATOM      1  N   UNL     1       1.674   1.400   0.000  0.00  0.00    -0.157 NA
ATOM      2  C   UNL     1       1.674  -0.101   0.000  0.00  0.00    +0.135 A 
ATOM      3  C   UNL     1       2.973  -0.851   0.000  0.00  0.00    +0.023 A 
ATOM      4  C   UNL     1       4.272  -0.101   0.000  0.00  0.00    +0.027 A 
ATOM      5  C   UNL     1       4.272   1.400   0.000  0.00  0.00    +0.071 A 
ATOM     14  N   UNL     1       2.973   2.150   0.000  0.00  0.00    -0.154 NA
ENDBRANCH   6   5
BRANCH   6   7
ATOM      7  C   UNL     1       6.870   1.400   0.000  0.00  0.00    +0.245 C 
ATOM     13  O   UNL     1       8.169   2.150   0.000  0.00  0.00    -0.285 OA
BRANCH   7   8
ATOM      8  C   UNL     1       6.870  -0.101   0.000  0.00  0.00    +0.375 C 
ATOM     12  O   UNL     1       8.169  -0.851   0.000  0.00  0.00    -0.242 OA
BRANCH   8   9
ATOM      9  O   UNL     1       5.571  -0.851   0.000  0.00  0.00    -0.459 OA
BRANCH   9  10
ATOM     10  C   UNL     1       5.571  -2.350   0.000  0.00  0.00    +0.229 C 
ATOM     11  C   UNL     1       6.870  -3.100   0.000  0.00  0.00    +0.048 C 
ENDBRANCH   9  10
ENDBRANCH   8   9
ENDBRANCH   7   8
ENDBRANCH   6   7
TORSDOF 5