REMARK  Name = 88795
REMARK  2 active torsions:
REMARK  status: ('A' for Active; 'I' for Inactive)
REMARK    1  A    between atoms: C_3  and  C_18
REMARK    2  A    between atoms: C_8  and  N_17
REMARK                            x       y       z     vdW  Elec       q    Type
REMARK                         _______ _______ _______ _____ _____    ______ ____
ROOT
ATOM      7  C   UNL     1      -2.923  -4.054   0.000  0.00  0.00    +0.227 C 
ATOM      8  O   UNL     1      -4.222  -3.304   0.000  0.00  0.00    -0.275 OA
ATOM      9  N   UNL     1      -2.923  -5.554   0.000  0.00  0.00    -0.285 N 
ATOM     10  H   UNL     1      -2.070  -6.046   0.000  0.00  0.00    +0.155 HD
ENDROOT
BRANCH   9  11
ATOM     11  C   UNL     1      -4.222  -6.304   0.000  0.00  0.00    +0.034 A 
ATOM     12  C   UNL     1      -4.222  -7.804   0.000  0.00  0.00    +0.024 A 
ATOM     13  C   UNL     1      -5.521  -8.554   0.000  0.00  0.00    +0.010 A 
ATOM     14  C   UNL     1      -6.820  -7.804   0.000  0.00  0.00    -0.018 A 
ATOM     15  C   UNL     1      -8.119  -8.554   0.000  0.00  0.00    +0.008 A 
ATOM     16  C   UNL     1      -9.418  -7.804   0.000  0.00  0.00    +0.001 A 
ATOM     17  C   UNL     1      -9.418  -6.304   0.000  0.00  0.00    +0.001 A 
ATOM     18  C   UNL     1      -8.119  -5.554   0.000  0.00  0.00    +0.008 A 
ATOM     19  C   UNL     1      -6.820  -6.304   0.000  0.00  0.00    -0.016 A 
ATOM     20  C   UNL     1      -5.521  -5.554   0.000  0.00  0.00    +0.031 A 
ENDBRANCH   9  11
BRANCH   7   6
ATOM      1  O   UNL     1       0.058  -5.381   0.000  0.00  0.00    -0.297 OA
ATOM      2  C   UNL     1      -0.254  -3.914   0.000  0.00  0.00    +0.145 C 
ATOM      3  C   UNL     1       0.750  -2.799   0.000  0.00  0.00    +0.075 C 
ATOM      4  C   UNL     1       0.000  -1.500   0.000  0.00  0.00    +0.009 C 
ATOM      5  C   UNL     1      -1.467  -1.812   0.000  0.00  0.00    +0.021 C 
ATOM      6  C   UNL     1      -1.624  -3.304   0.000  0.00  0.00    +0.141 C 
ENDBRANCH   7   6
TORSDOF 2