REMARK  Name = 87690
REMARK  3 active torsions:
REMARK  status: ('A' for Active; 'I' for Inactive)
REMARK    1  A    between atoms: N_6  and  C_18
REMARK    2  A    between atoms: C_14  and  C_18
REMARK    3  A    between atoms: C_15  and  N_19
REMARK                            x       y       z     vdW  Elec       q    Type
REMARK                         _______ _______ _______ _____ _____    ______ ____
ROOT
ATOM      1  N   UNL     1     -13.081   3.650   0.000  0.00  0.00    -0.198 NA
ATOM      2  C   UNL     1     -11.782   4.400   0.000  0.00  0.00    +0.301 A 
ATOM      3  C   UNL     1     -10.483   3.650   0.000  0.00  0.00    +0.172 A 
ATOM      4  C   UNL     1     -10.483   2.150   0.000  0.00  0.00    +0.145 A 
ATOM      5  N   UNL     1      -9.056   1.686   0.000  0.00  0.00    -0.312 N 
ATOM     16  C   UNL     1      -8.174   2.900   0.000  0.00  0.00    +0.202 A 
ATOM     17  N   UNL     1     -11.782   1.400   0.000  0.00  0.00    -0.330 N 
ATOM     18  H   UNL     1     -11.782  -0.100   0.000  0.00  0.00    +0.168 HD
ATOM     19  N   UNL     1      -9.056   4.113   0.000  0.00  0.00    -0.229 NA
ATOM     20  O   UNL     1     -11.781   5.900   0.000  0.00  0.00    -0.263 OA
ATOM     21  C   UNL     1     -13.081   2.150   0.000  0.00  0.00    +0.202 A 
ENDROOT
BRANCH   5   6
ATOM      6  C   UNL     1      -8.592   0.260   0.000  0.00  0.00    +0.159 C 
BRANCH   6   7
ATOM      7  C   UNL     1      -7.125  -0.052   0.000  0.00  0.00    -0.027 A 
ATOM      8  C   UNL     1      -6.662  -1.479   0.000  0.00  0.00    +0.012 A 
ATOM      9  C   UNL     1      -5.194  -1.791   0.000  0.00  0.00    +0.084 A 
ATOM     10  C   UNL     1      -4.191  -0.676   0.000  0.00  0.00    +0.273 A 
ATOM     14  C   UNL     1      -4.654   0.751   0.000  0.00  0.00    +0.084 A 
ATOM     15  C   UNL     1      -6.122   1.063   0.000  0.00  0.00    +0.012 A 
BRANCH  10  11
ATOM     11  N   UNL     1      -2.724  -0.988   0.000  0.00  0.00    +0.080 N 
ATOM     12  O   UNL     1      -2.260  -2.414   0.000  0.00  0.00    +0.041 OA
ATOM     13  O   UNL     1      -1.720   0.127   0.000  0.00  0.00    -0.576 OA
ENDBRANCH  10  11
ENDBRANCH   6   7
ENDBRANCH   5   6
TORSDOF 3