REMARK  Name = 9064
REMARK  8 active torsions:
REMARK  status: ('A' for Active; 'I' for Inactive)
REMARK    1  A    between atoms: C_3  and  C_7
REMARK    2  A    between atoms: C_4  and  C_13
REMARK    3  A    between atoms: C_5  and  C_11
REMARK    4  A    between atoms: C_6  and  C_10
REMARK    5  A    between atoms: C_7  and  O_8
REMARK    6  A    between atoms: O_9  and  C_10
REMARK    7  A    between atoms: C_11  and  O_12
REMARK    8  A    between atoms: C_13  and  O_14
REMARK                            x       y       z     vdW  Elec       q    Type
REMARK                         _______ _______ _______ _____ _____    ______ ____
ROOT
ATOM      1  O   UNL     1      -5.200   0.901   0.000  0.00  0.00    -0.297 OA
ATOM      2  C   UNL     1      -5.200  -0.599   0.000  0.00  0.00    +0.144 C 
ATOM      3  C   UNL     1      -3.986  -1.481   0.000  0.00  0.00    +0.087 C 
ATOM      7  C   UNL     1      -4.450  -2.907   0.000  0.00  0.00    +0.033 C 
ATOM     11  C   UNL     1      -5.950  -2.907   0.000  0.00  0.00    +0.033 C 
ATOM     15  C   UNL     1      -6.414  -1.481   0.000  0.00  0.00    +0.087 C 
ENDROOT
BRANCH   3   4
ATOM      4  C   UNL     1      -2.560  -1.017   0.000  0.00  0.00    +0.167 C 
BRANCH   4   5
ATOM      5  O   UNL     1      -1.445  -2.021   0.000  0.00  0.00    -0.394 OA
ATOM      6  H   UNL     1      -1.647  -2.970   0.000  0.00  0.00    +0.209 HD
ENDBRANCH   4   5
ENDBRANCH   3   4
BRANCH   7   8
ATOM      8  C   UNL     1      -3.568  -4.121   0.000  0.00  0.00    +0.160 C 
BRANCH   8   9
ATOM      9  O   UNL     1      -2.077  -3.964   0.000  0.00  0.00    -0.395 OA
ATOM     10  H   UNL     1      -1.506  -4.749   0.000  0.00  0.00    +0.209 HD
ENDBRANCH   8   9
ENDBRANCH   7   8
BRANCH  11  12
ATOM     12  C   UNL     1      -6.832  -4.121   0.000  0.00  0.00    +0.160 C 
BRANCH  12  13
ATOM     13  O   UNL     1      -8.323  -3.964   0.000  0.00  0.00    -0.395 OA
ATOM     14  H   UNL     1      -8.718  -3.078   0.000  0.00  0.00    +0.209 HD
ENDBRANCH  12  13
ENDBRANCH  11  12
BRANCH  15  16
ATOM     16  C   UNL     1      -7.840  -1.017   0.000  0.00  0.00    +0.167 C 
BRANCH  16  17
ATOM     17  O   UNL     1      -8.955  -2.021   0.000  0.00  0.00    -0.394 OA
ATOM     18  H   UNL     1      -9.877  -1.721   0.000  0.00  0.00    +0.209 HD
ENDBRANCH  16  17
ENDBRANCH  15  16
TORSDOF 8