REMARK  Name = 89249
REMARK  6 active torsions:
REMARK  status: ('A' for Active; 'I' for Inactive)
REMARK    1  A    between atoms: C_3  and  C_10
REMARK    2  A    between atoms: C_5  and  N_7
REMARK    3  A    between atoms: C_10  and  O_11
REMARK    4  A    between atoms: C_10  and  C_12
REMARK    5  A    between atoms: C_12  and  N_13
REMARK    6  A    between atoms: C_14  and  C_16
REMARK                            x       y       z     vdW  Elec       q    Type
REMARK                         _______ _______ _______ _____ _____    ______ ____
ROOT
ATOM      1  C   UNL     1       2.873   5.524   0.000  0.00  0.00    +0.013 A 
ATOM      2  C   UNL     1       4.172   4.774   0.000  0.00  0.00    -0.017 A 
ATOM     12  C   UNL     1       4.172   3.275   0.000  0.00  0.00    +0.013 A 
ATOM     13  C   UNL     1       2.873   2.525   0.000  0.00  0.00    +0.084 A 
ATOM     14  C   UNL     1       1.574   3.275   0.000  0.00  0.00    +0.273 A 
ATOM     18  C   UNL     1       1.574   4.774   0.000  0.00  0.00    +0.084 A 
ENDROOT
BRANCH  14  15
ATOM     15  N   UNL     1       0.275   2.525   0.000  0.00  0.00    +0.080 N 
ATOM     16  O   UNL     1       0.275   1.025   0.000  0.00  0.00    +0.041 OA
ATOM     17  O   UNL     1      -1.025   3.275   0.000  0.00  0.00    -0.576 OA
ENDBRANCH  14  15
BRANCH   2   3
ATOM      3  C   UNL     1       5.471   5.524   0.000  0.00  0.00    +0.162 C 
BRANCH   3  10
ATOM     10  O   UNL     1       6.770   4.774   0.000  0.00  0.00    -0.386 OA
ATOM     11  H   UNL     1       6.770   3.805   0.000  0.00  0.00    +0.210 HD
ENDBRANCH   3  10
BRANCH   3   4
ATOM      4  C   UNL     1       5.471   7.024   0.000  0.00  0.00    +0.140 C 
BRANCH   4   5
ATOM      5  N   UNL     1       6.770   7.774   0.000  0.00  0.00    -0.313 N 
ATOM      6  H   UNL     1       6.770   8.759   0.000  0.00  0.00    +0.149 HD
ATOM      7  C   UNL     1       8.069   7.024   0.000  0.00  0.00    +0.210 C 
ATOM      8  C   UNL     1       9.368   7.774   0.000  0.00  0.00    +0.109 C 
ATOM      9  O   UNL     1       8.069   5.524   0.000  0.00  0.00    -0.276 OA
ENDBRANCH   4   5
ENDBRANCH   3   4
ENDBRANCH   2   3
TORSDOF 5