REMARK  Name = 92709
REMARK  3 active torsions:
REMARK  status: ('A' for Active; 'I' for Inactive)
REMARK    1  A    between atoms: N_2  and  C_12
REMARK    2  A    between atoms: C_7  and  O_14
REMARK    3  A    between atoms: O_14  and  C_15
REMARK                            x       y       z     vdW  Elec       q    Type
REMARK                         _______ _______ _______ _____ _____    ______ ____
ROOT
ATOM      1  N   UNL     1       4.272  -0.101   0.000  0.00  0.00    -0.158 NA
ATOM      2  C   UNL     1       5.571  -0.851   0.000  0.00  0.00    +0.354 A 
ATOM      3  O   UNL     1       5.571  -2.350   0.000  0.00  0.00    -0.244 OA
ATOM      4  N   UNL     1       6.870  -0.101   0.000  0.00  0.00    -0.273 N 
ATOM     11  C   UNL     1       6.870   1.400   0.000  0.00  0.00    +0.098 A 
ATOM     12  C   UNL     1       5.571   2.150   0.000  0.00  0.00    +0.085 A 
ATOM     13  C   UNL     1       4.272   1.400   0.000  0.00  0.00    +0.220 A 
ENDROOT
BRANCH   4   5
ATOM      5  C   UNL     1       8.169  -0.851   0.000  0.00  0.00    +0.223 C 
ATOM      6  C   UNL     1       8.169  -2.350   0.000  0.00  0.00    +0.055 C 
ATOM      7  C   UNL     1       9.468  -3.100   0.000  0.00  0.00    +0.007 C 
ATOM      8  C   UNL     1      10.767  -2.350   0.000  0.00  0.00    +0.028 C 
ATOM      9  C   UNL     1      10.767  -0.851   0.000  0.00  0.00    +0.162 C 
ATOM     10  O   UNL     1       9.468  -0.101   0.000  0.00  0.00    -0.356 OA
ENDBRANCH   4   5
BRANCH  13  14
ATOM     14  O   UNL     1       2.973   2.150   0.000  0.00  0.00    -0.480 OA
ATOM     15  C   UNL     1       2.973   3.650   0.000  0.00  0.00    +0.279 C 
ENDBRANCH  13  14
TORSDOF 2