REMARK  Name = 91529
REMARK  16 active torsions:
REMARK  status: ('A' for Active; 'I' for Inactive)
REMARK    1  A    between atoms: C_2  and  C_35
REMARK    2  A    between atoms: C_3  and  O_36
REMARK    3  A    between atoms: C_4  and  O_37
REMARK    4  A    between atoms: C_7  and  C_28
REMARK    5  A    between atoms: C_7  and  O_31
REMARK    6  A    between atoms: C_9  and  O_26
REMARK    7  A    between atoms: C_11  and  O_25
REMARK    8  A    between atoms: C_12  and  O_27
REMARK    9  A    between atoms: C_14  and  C_21
REMARK   10  A    between atoms: C_15  and  O_19
REMARK   11  A    between atoms: C_17  and  O_20
REMARK   12  A    between atoms: C_22  and  C_23
REMARK   13  A    between atoms: C_23  and  O_25
REMARK   14  A    between atoms: C_28  and  O_30
REMARK   15  A    between atoms: O_31  and  C_32
REMARK   16  A    between atoms: C_32  and  C_34
REMARK                            x       y       z     vdW  Elec       q    Type
REMARK                         _______ _______ _______ _____ _____    ______ ____
ROOT
ATOM     16  C   UNL     1      -3.830   7.245   0.000  0.00  0.00    +0.214 C 
ATOM     21  C   UNL     1      -3.080   5.946   0.000  0.00  0.00    +0.095 C 
ATOM     22  C   UNL     1      -3.830   4.647   0.000  0.00  0.00    +0.162 C 
ATOM     25  C   UNL     1      -5.330   4.647   0.000  0.00  0.00    +0.234 C 
ATOM     41  C   UNL     1      -6.080   5.946   0.000  0.00  0.00    +0.162 C 
ATOM     44  C   UNL     1      -5.330   7.245   0.000  0.00  0.00    +0.095 C 
ENDROOT
BRANCH  16  17
ATOM     17  C   UNL     1      -4.090   8.722   0.000  0.00  0.00    +0.349 C 
ATOM     20  O   UNL     1      -2.941   9.687   0.000  0.00  0.00    -0.246 OA
BRANCH  17  18
ATOM     18  O   UNL     1      -5.500   9.235   0.000  0.00  0.00    -0.478 OA
ATOM     19  H   UNL     1      -5.662  10.158   0.000  0.00  0.00    +0.295 HD
ENDBRANCH  17  18
ENDBRANCH  16  17
BRANCH  22  23
ATOM     23  O   UNL     1      -3.080   3.348   0.000  0.00  0.00    -0.388 OA
ATOM     24  H   UNL     1      -3.565   2.508   0.000  0.00  0.00    +0.210 HD
ENDBRANCH  22  23
BRANCH  41  42
ATOM     42  O   UNL     1      -7.580   5.946   0.000  0.00  0.00    -0.388 OA
ATOM     43  H   UNL     1      -8.065   6.786   0.000  0.00  0.00    +0.210 HD
ENDBRANCH  41  42
BRANCH  16  15
ATOM     15  O   UNL     1      -2.420   7.758   0.000  0.00  0.00    -0.443 OA
BRANCH  15  13
ATOM     13  C   UNL     1      -1.271   6.794   0.000  0.00  0.00    +0.333 C 
ATOM     14  O   UNL     1       0.139   7.307   0.000  0.00  0.00    -0.246 OA
BRANCH  13  12
ATOM     11  C   UNL     1      -0.382   4.353   0.000  0.00  0.00    +0.015 C 
ATOM     12  C   UNL     1      -1.531   5.317   0.000  0.00  0.00    +0.092 C 
BRANCH  11  10
ATOM      1  C   UNL     1      -2.052   2.362   0.000  0.00  0.00    +0.057 A 
ATOM      2  C   UNL     1      -2.313   0.885   0.000  0.00  0.00    +0.159 A 
ATOM      5  C   UNL     1      -1.164  -0.079   0.000  0.00  0.00    +0.158 A 
ATOM      8  C   UNL     1       0.246   0.434   0.000  0.00  0.00    +0.050 A 
ATOM      9  C   UNL     1       0.506   1.911   0.000  0.00  0.00    +0.012 A 
ATOM     10  C   UNL     1      -0.643   2.875   0.000  0.00  0.00    -0.021 A 
BRANCH   2   3
ATOM      3  O   UNL     1      -3.722   0.372   0.000  0.00  0.00    -0.503 OA
ATOM      4  H   UNL     1      -4.440   0.974   0.000  0.00  0.00    +0.292 HD
ENDBRANCH   2   3
BRANCH   5   6
ATOM      6  O   UNL     1      -1.424  -1.556   0.000  0.00  0.00    -0.503 OA
ATOM      7  H   UNL     1      -2.305  -1.877   0.000  0.00  0.00    +0.292 HD
ENDBRANCH   5   6
ENDBRANCH  11  10
ENDBRANCH  13  12
ENDBRANCH  15  13
ENDBRANCH  16  15
BRANCH  25  26
ATOM     26  O   UNL     1      -6.080   3.348   0.000  0.00  0.00    -0.453 OA
BRANCH  26  27
ATOM     27  C   UNL     1      -5.330   2.049   0.000  0.00  0.00    +0.332 C 
ATOM     28  O   UNL     1      -3.830   2.049   0.000  0.00  0.00    -0.246 OA
BRANCH  27  29
ATOM     29  C   UNL     1      -6.080   0.750   0.000  0.00  0.00    +0.092 C 
ATOM     30  C   UNL     1      -7.580   0.750   0.000  0.00  0.00    +0.015 C 
BRANCH  30  31
ATOM     31  C   UNL     1      -8.330   2.049   0.000  0.00  0.00    -0.021 A 
ATOM     32  C   UNL     1      -7.580   3.348   0.000  0.00  0.00    +0.012 A 
ATOM     33  C   UNL     1      -8.330   4.647   0.000  0.00  0.00    +0.050 A 
ATOM     34  C   UNL     1      -9.830   4.647   0.000  0.00  0.00    +0.158 A 
ATOM     37  C   UNL     1     -10.580   3.348   0.000  0.00  0.00    +0.159 A 
ATOM     40  C   UNL     1      -9.830   2.049   0.000  0.00  0.00    +0.057 A 
BRANCH  34  35
ATOM     35  O   UNL     1     -10.580   5.946   0.000  0.00  0.00    -0.503 OA
ATOM     36  H   UNL     1     -10.111   6.758   0.000  0.00  0.00    +0.292 HD
ENDBRANCH  34  35
BRANCH  37  38
ATOM     38  O   UNL     1     -12.080   3.348   0.000  0.00  0.00    -0.503 OA
ATOM     39  H   UNL     1     -12.548   4.160   0.000  0.00  0.00    +0.292 HD
ENDBRANCH  37  38
ENDBRANCH  30  31
ENDBRANCH  27  29
ENDBRANCH  26  27
ENDBRANCH  25  26
TORSDOF 16