REMARK  Name = 88883
REMARK  1 active torsions:
REMARK  status: ('A' for Active; 'I' for Inactive)
REMARK    1  A    between atoms: N_9  and  C_11
REMARK                            x       y       z     vdW  Elec       q    Type
REMARK                         _______ _______ _______ _____ _____    ______ ____
ROOT
ATOM      1  C   UNL     1      -1.144  -8.991   0.000  0.00  0.00    +0.002 A 
ATOM      2  C   UNL     1      -0.681 -10.418   0.000  0.00  0.00    +0.002 A 
ATOM      3  C   UNL     1       0.786 -10.730   0.000  0.00  0.00    +0.028 A 
ATOM      4  C   UNL     1       1.790  -9.615   0.000  0.00  0.00    +0.067 A 
ATOM      5  N   UNL     1       3.290  -9.615   0.000  0.00  0.00    -0.306 N 
ATOM      6  H   UNL     1       4.172 -10.828   0.000  0.00  0.00    +0.170 HD
ATOM      7  C   UNL     1       3.754  -8.188   0.000  0.00  0.00    +0.332 A 
ATOM      8  O   UNL     1       5.180  -7.725   0.000  0.00  0.00    -0.246 OA
ATOM      9  N   UNL     1       2.540  -7.307   0.000  0.00  0.00    -0.265 N 
ATOM     17  C   UNL     1       1.327  -8.188   0.000  0.00  0.00    +0.074 A 
ATOM     18  C   UNL     1      -0.141  -7.877   0.000  0.00  0.00    +0.028 A 
ENDROOT
BRANCH   9  10
ATOM     10  C   UNL     1       2.540  -5.807   0.000  0.00  0.00    +0.027 C 
ATOM     11  C   UNL     1       3.839  -5.057   0.000  0.00  0.00    +0.068 C 
ATOM     12  C   UNL     1       3.839  -3.557   0.000  0.00  0.00    +0.087 C 
ATOM     13  N   UNL     1       2.540  -2.807   0.000  0.00  0.00    -0.312 NA
ATOM     14  H   UNL     1       2.540  -1.307   0.000  0.00  0.00    +0.122 HD
ATOM     15  C   UNL     1       1.241  -3.557   0.000  0.00  0.00    +0.110 C 
ATOM     16  C   UNL     1       1.241  -5.057   0.000  0.00  0.00    +0.010 C 
ENDBRANCH   9  10
TORSDOF 1