REMARK  Name = 34488
REMARK  3 active torsions:
REMARK  status: ('A' for Active; 'I' for Inactive)
REMARK    1  A    between atoms: N_4  and  C_11
REMARK    2  A    between atoms: N_16  and  C_17
REMARK    3  A    between atoms: N_16  and  C_18
REMARK                            x       y       z     vdW  Elec       q    Type
REMARK                         _______ _______ _______ _____ _____    ______ ____
ROOT
ATOM      1  N   UNL     1       2.973  -2.150   0.000  0.00  0.00    -0.218 NA
ATOM      2  C   UNL     1       2.973  -3.650   0.000  0.00  0.00    +0.225 A 
ATOM      3  N   UNL     1       4.272  -4.399   0.000  0.00  0.00    -0.216 NA
ATOM      4  C   UNL     1       5.571  -3.650   0.000  0.00  0.00    +0.170 A 
ATOM      5  C   UNL     1       5.571  -2.150   0.000  0.00  0.00    +0.148 A 
ATOM      6  N   UNL     1       6.998  -1.686   0.000  0.00  0.00    -0.230 NA
ATOM      7  C   UNL     1       7.879  -2.900   0.000  0.00  0.00    +0.206 A 
ATOM      8  N   UNL     1       6.998  -4.113   0.000  0.00  0.00    -0.283 N 
ATOM     15  C   UNL     1       4.272  -1.400   0.000  0.00  0.00    +0.152 A 
ATOM     16  N   UNL     1       4.272   0.101   0.000  0.00  0.00    -0.319 N 
ATOM     17  C   UNL     1       5.571   0.851   0.000  0.00  0.00    +0.130 C 
ATOM     18  C   UNL     1       2.973   0.851   0.000  0.00  0.00    +0.130 C 
ENDROOT
BRANCH   8   9
ATOM      9  C   UNL     1       7.461  -5.540   0.000  0.00  0.00    +0.049 A 
ATOM     10  C   UNL     1       6.458  -6.654   0.000  0.00  0.00    +0.026 A 
ATOM     11  C   UNL     1       6.921  -8.081   0.000  0.00  0.00    +0.002 A 
ATOM     12  C   UNL     1       8.388  -8.393   0.000  0.00  0.00    +0.000 A 
ATOM     13  C   UNL     1       9.392  -7.278   0.000  0.00  0.00    +0.002 A 
ATOM     14  C   UNL     1       8.928  -5.851   0.000  0.00  0.00    +0.026 A 
ENDBRANCH   8   9
TORSDOF 1