REMARK  Name = 343344
REMARK  2 active torsions:
REMARK  status: ('A' for Active; 'I' for Inactive)
REMARK    1  A    between atoms: C_5  and  C_7
REMARK    2  A    between atoms: C_7  and  C_10
REMARK                            x       y       z     vdW  Elec       q    Type
REMARK                         _______ _______ _______ _____ _____    ______ ____
ROOT
ATOM      1  C   UNL     1       0.275   3.623   0.000  0.00  0.00    +0.044 A 
ATOM      2  C   UNL     1       1.025   2.324   0.000  0.00  0.00    +0.116 A 
ATOM      3  N   UNL     1       0.275   1.025   0.000  0.00  0.00    -0.343 N 
ATOM      4  H   UNL     1       0.767   0.172   0.000  0.00  0.00    +0.144 HD
ATOM      5  H   UNL     1      -0.710   1.024   0.000  0.00  0.00    +0.144 HD
ATOM      6  N   UNL     1       2.525   2.324   0.000  0.00  0.00    -0.240 NA
ATOM      7  C   UNL     1       3.275   3.623   0.000  0.00  0.00    +0.124 A 
ATOM      8  C   UNL     1       2.525   4.922   0.000  0.00  0.00    +0.041 A 
ATOM     16  C   UNL     1       1.025   4.922   0.000  0.00  0.00    +0.016 A 
ENDROOT
BRANCH   8   9
ATOM      9  C   UNL     1       3.275   6.221   0.000  0.00  0.00    +0.201 C 
ATOM     15  O   UNL     1       2.525   7.520   0.000  0.00  0.00    -0.286 OA
BRANCH   9  10
ATOM     10  C   UNL     1       4.774   6.221   0.000  0.00  0.00    +0.059 A 
ATOM     11  S   UNL     1       5.656   5.007   0.000  0.00  0.00    -0.093 S 
ATOM     12  C   UNL     1       7.083   5.471   0.000  0.00  0.00    +0.046 A 
ATOM     13  C   UNL     1       7.083   6.971   0.000  0.00  0.00    +0.008 A 
ATOM     14  C   UNL     1       5.656   7.434   0.000  0.00  0.00    +0.019 A 
ENDBRANCH   9  10
ENDBRANCH   8   9
TORSDOF 2