REMARK  Name = 341074
REMARK  4 active torsions:
REMARK  status: ('A' for Active; 'I' for Inactive)
REMARK    1  A    between atoms: N_3  and  C_13
REMARK    2  A    between atoms: C_4  and  S_6
REMARK    3  A    between atoms: C_5  and  N_14
REMARK    4  A    between atoms: S_6  and  C_8
REMARK                            x       y       z     vdW  Elec       q    Type
REMARK                         _______ _______ _______ _____ _____    ______ ____
ROOT
ATOM      8  S   UNL     1       0.517  -0.928   0.000  0.00  0.00    -0.024 S 
ENDROOT
BRANCH   8   9
ATOM      9  C   UNL     1       1.420   0.270   0.000  0.00  0.00    +0.192 A 
ATOM     10  N   UNL     1       2.920   0.243   0.000  0.00  0.00    -0.252 N 
ATOM     11  N   UNL     1       3.409   1.661   0.000  0.00  0.00    -0.136 NA
ATOM     12  C   UNL     1       2.211   2.564   0.000  0.00  0.00    +0.233 A 
ATOM     13  N   UNL     1       2.238   4.064   0.000  0.00  0.00    -0.326 N 
ATOM     14  H   UNL     1       1.394   4.571   0.000  0.00  0.00    +0.145 HD
ATOM     15  H   UNL     1       3.099   4.541   0.000  0.00  0.00    +0.145 HD
ATOM     16  H   UNL     1       3.780  -0.986   0.000  0.00  0.00    +0.191 HD
ATOM     17  N   UNL     1       0.982   1.704   0.000  0.00  0.00    -0.188 NA
ENDBRANCH   8   9
BRANCH   8   7
ATOM      1  C   UNL     1      -2.905   0.904   0.000  0.00  0.00    +0.206 A 
ATOM      2  N   UNL     1      -3.344  -0.530   0.000  0.00  0.00    -0.170 NA
ATOM      3  C   UNL     1      -2.116  -1.391   0.000  0.00  0.00    +0.399 A 
ATOM      7  C   UNL     1      -0.917  -0.489   0.000  0.00  0.00    +0.184 A 
ATOM     18  N   UNL     1      -1.405   0.929   0.000  0.00  0.00    -0.322 N 
ATOM     19  C   UNL     1      -0.544   2.158   0.000  0.00  0.00    +0.151 C 
BRANCH   3   4
ATOM      4  N   UNL     1      -2.090  -2.891   0.000  0.00  0.00    +0.103 N 
ATOM      5  O   UNL     1      -3.376  -3.663   0.000  0.00  0.00    +0.043 OA
ATOM      6  O   UNL     1      -0.778  -3.619   0.000  0.00  0.00    -0.575 OA
ENDBRANCH   3   4
ENDBRANCH   8   7
TORSDOF 3