REMARK  Name = 345850
REMARK  5 active torsions:
REMARK  status: ('A' for Active; 'I' for Inactive)
REMARK    1  A    between atoms: O_5  and  C_11
REMARK    2  A    between atoms: O_5  and  C_17
REMARK    3  A    between atoms: N_12  and  C_18
REMARK    4  A    between atoms: C_15  and  O_16
REMARK    5  A    between atoms: O_16  and  C_24
REMARK                            x       y       z     vdW  Elec       q    Type
REMARK                         _______ _______ _______ _____ _____    ______ ____
ROOT
ATOM      1  C   UNL     1       1.674   1.400   0.000  0.00  0.00    +0.003 C 
ATOM      2  C   UNL     1       1.674  -0.101   0.000  0.00  0.00    +0.006 C 
ATOM      3  C   UNL     1       2.973  -0.851   0.000  0.00  0.00    +0.054 C 
ATOM      4  C   UNL     1       4.272  -0.101   0.000  0.00  0.00    +0.061 C 
ATOM      5  N   UNL     1       5.571  -0.851   0.000  0.00  0.00    -0.167 NA
ATOM      6  N   UNL     1       6.870  -0.100   0.000  0.00  0.00    -0.117 N 
ATOM     13  N   UNL     1       6.870   1.400   0.000  0.00  0.00    -0.070 N 
ATOM     14  C   UNL     1       8.169   2.150   0.000  0.00  0.00    +0.439 C 
ATOM     17  O   UNL     1       8.169   3.650   0.000  0.00  0.00    -0.223 OA
ATOM     18  N   UNL     1       5.571   2.150   0.000  0.00  0.00    -0.153 N 
ATOM     19  C   UNL     1       5.571   3.650   0.000  0.00  0.00    +0.421 C 
ATOM     20  O   UNL     1       6.870   4.400   0.000  0.00  0.00    -0.225 OA
ATOM     23  C   UNL     1       4.272   1.400   0.000  0.00  0.00    +0.148 C 
ATOM     24  C   UNL     1       2.973   2.150   0.000  0.00  0.00    +0.030 C 
ENDROOT
BRANCH   6   7
ATOM      7  C   UNL     1       8.169  -0.850   0.000  0.00  0.00    +0.075 A 
ATOM      8  C   UNL     1       8.169  -2.350   0.000  0.00  0.00    +0.027 A 
ATOM      9  C   UNL     1       9.468  -3.100   0.000  0.00  0.00    +0.002 A 
ATOM     10  C   UNL     1      10.767  -2.350   0.000  0.00  0.00    +0.000 A 
ATOM     11  C   UNL     1      10.767  -0.850   0.000  0.00  0.00    +0.002 A 
ATOM     12  C   UNL     1       9.468  -0.100   0.000  0.00  0.00    +0.027 A 
ENDBRANCH   6   7
BRANCH  14  15
ATOM     15  O   UNL     1       9.468   1.400   0.000  0.00  0.00    -0.451 OA
ATOM     16  C   UNL     1      10.767   2.150   0.000  0.00  0.00    +0.282 C 
ENDBRANCH  14  15
BRANCH  19  21
ATOM     21  O   UNL     1       4.272   4.399   0.000  0.00  0.00    -0.453 OA
ATOM     22  C   UNL     1       4.272   5.899   0.000  0.00  0.00    +0.282 C 
ENDBRANCH  19  21
TORSDOF 3