REMARK  Name = 34865
REMARK  5 active torsions:
REMARK  status: ('A' for Active; 'I' for Inactive)
REMARK    1  A    between atoms: C_4  and  AS_17
REMARK    2  A    between atoms: C_5  and  N_19
REMARK    3  A    between atoms: C_9  and  AS_17
REMARK    4  A    between atoms: C_12  and  N_14
REMARK    5  A    between atoms: AS_17  and  O_18
REMARK                            x       y       z     vdW  Elec       q    Type
REMARK                         _______ _______ _______ _____ _____    ______ ____
ROOT
ATOM      1  O   UNL     1      -5.471  -4.024   0.000  0.00  0.00    +0.000 OA
ATOM      2 AS   UNL     1      -4.721  -5.324   0.000  0.00  0.00    +0.000 As
ENDROOT
BRANCH   2   5
ATOM      5  C   UNL     1      -6.020  -6.074   0.000  0.00  0.00    +0.000 A 
ATOM      6  C   UNL     1      -6.020  -7.574   0.000  0.00  0.00    +0.000 A 
ATOM      7  C   UNL     1      -7.319  -8.324   0.000  0.00  0.00    +0.000 A 
ATOM      8  C   UNL     1      -8.618  -7.574   0.000  0.00  0.00    +0.000 A 
ATOM     12  C   UNL     1      -8.618  -6.074   0.000  0.00  0.00    +0.000 A 
ATOM     13  C   UNL     1      -7.319  -5.324   0.000  0.00  0.00    +0.000 A 
BRANCH   8   9
ATOM      9  N   UNL     1      -9.917  -8.324   0.000  0.00  0.00    +1.000 N 
ATOM     10  O   UNL     1      -9.917  -9.824   0.000  0.00  0.00    +0.000 OA
ATOM     11  O   UNL     1     -11.216  -7.574   0.000  0.00  0.00    -1.000 OA
ENDBRANCH   8   9
ENDBRANCH   2   5
BRANCH   2  14
ATOM     14  C   UNL     1      -3.422  -4.574   0.000  0.00  0.00    +0.000 A 
ATOM     15  C   UNL     1      -2.123  -5.324   0.000  0.00  0.00    +0.000 A 
ATOM     16  C   UNL     1      -0.824  -4.574   0.000  0.00  0.00    +0.000 A 
ATOM     17  C   UNL     1      -0.824  -3.074   0.000  0.00  0.00    +0.000 A 
ATOM     21  C   UNL     1      -2.123  -2.324   0.000  0.00  0.00    +0.000 A 
ATOM     22  C   UNL     1      -3.422  -3.074   0.000  0.00  0.00    +0.000 A 
BRANCH  17  18
ATOM     18  N   UNL     1       0.475  -2.324   0.000  0.00  0.00    +0.000 N 
ATOM     19  H   UNL     1       0.476  -1.339   0.000  0.00  0.00    +0.000 HD
ATOM     20  H   UNL     1       1.328  -2.816   0.000  0.00  0.00    +0.000 HD
ENDBRANCH  17  18
ENDBRANCH   2  14
BRANCH   2   3
ATOM      3  O   UNL     1      -3.971  -6.623   0.000  0.00  0.00    +0.000 OA
ATOM      4  H   UNL     1      -4.456  -7.463   0.000  0.00  0.00    +0.000 HD
ENDBRANCH   2   3
TORSDOF 5