REMARK  Name = 346578
REMARK  5 active torsions:
REMARK  status: ('A' for Active; 'I' for Inactive)
REMARK    1  A    between atoms: N_9  and  C_22
REMARK    2  A    between atoms: O_14  and  C_16
REMARK    3  A    between atoms: O_14  and  C_23
REMARK    4  A    between atoms: C_20  and  C_24
REMARK    5  A    between atoms: C_20  and  C_25
REMARK                            x       y       z     vdW  Elec       q    Type
REMARK                         _______ _______ _______ _____ _____    ______ ____
ROOT
ATOM      1  C   UNL     1       2.680   2.319   0.000  0.00  0.00    +0.004 A 
ATOM      2  C   UNL     1       2.680   0.819   0.000  0.00  0.00    +0.040 A 
ATOM      3  C   UNL     1       3.979   0.069   0.000  0.00  0.00    +0.147 A 
ATOM      4  F   UNL     1       3.979  -1.431   0.000  0.00  0.00    -0.203 F 
ATOM      5  C   UNL     1       5.278   0.819   0.000  0.00  0.00    +0.089 A 
ATOM      6  N   UNL     1       6.577   0.069   0.000  0.00  0.00    -0.340 N 
ATOM      7  C   UNL     1       6.577  -1.431   0.000  0.00  0.00    +0.149 C 
ATOM      8  C   UNL     1       7.876   0.819   0.000  0.00  0.00    +0.067 A 
ATOM      9  C   UNL     1       9.175   0.069   0.000  0.00  0.00    +0.041 A 
ATOM     10  C   UNL     1       9.175  -1.431   0.000  0.00  0.00    +0.013 C 
ATOM     11  C   UNL     1      10.474  -2.181   0.000  0.00  0.00    +0.020 C 
ATOM     12  C   UNL     1      11.773  -1.431   0.000  0.00  0.00    +0.124 C 
ATOM     13  C   UNL     1      13.250  -1.171   0.000  0.00  0.00    +0.060 C 
ATOM     14  C   UNL     1      12.286  -2.841   0.000  0.00  0.00    +0.060 C 
ATOM     15  O   UNL     1      11.773   0.069   0.000  0.00  0.00    -0.481 OA
ATOM     16  C   UNL     1      10.474   0.819   0.000  0.00  0.00    +0.134 A 
ATOM     17  C   UNL     1      10.474   2.319   0.000  0.00  0.00    +0.092 A 
ATOM     18  C   UNL     1       9.175   3.069   0.000  0.00  0.00    +0.136 A 
ATOM     21  C   UNL     1       7.876   2.319   0.000  0.00  0.00    +0.088 A 
ATOM     22  C   UNL     1       6.577   3.069   0.000  0.00  0.00    +0.201 A 
ATOM     23  O   UNL     1       6.577   4.569   0.000  0.00  0.00    -0.286 OA
ATOM     24  C   UNL     1       5.278   2.319   0.000  0.00  0.00    +0.049 A 
ATOM     25  C   UNL     1       3.979   3.069   0.000  0.00  0.00    +0.014 A 
ENDROOT
BRANCH  18  19
ATOM     19  O   UNL     1       9.175   4.569   0.000  0.00  0.00    -0.494 OA
ATOM     20  C   UNL     1      10.474   5.319   0.000  0.00  0.00    +0.277 C 
ENDBRANCH  18  19
TORSDOF 1