REMARK  Name = 34871
REMARK  6 active torsions:
REMARK  status: ('A' for Active; 'I' for Inactive)
REMARK    1  A    between atoms: C_4  and  AS_17
REMARK    2  A    between atoms: C_5  and  N_19
REMARK    3  A    between atoms: C_10  and  AS_17
REMARK    4  A    between atoms: C_12  and  N_14
REMARK    5  A    between atoms: AS_17  and  O_18
REMARK    6  A    between atoms: C_20  and  C_22
REMARK                            x       y       z     vdW  Elec       q    Type
REMARK                         _______ _______ _______ _____ _____    ______ ____
ROOT
ATOM      1  O   UNL     1       4.620   6.998   0.000  0.00  0.00    +0.000 OA
ATOM      2 AS   UNL     1       5.370   5.699   0.000  0.00  0.00    +0.000 As
ENDROOT
BRANCH   2   5
ATOM      5  C   UNL     1       4.071   4.949   0.000  0.00  0.00    +0.000 A 
ATOM      6  C   UNL     1       4.071   3.449   0.000  0.00  0.00    +0.000 A 
ATOM      7  C   UNL     1       2.772   2.699   0.000  0.00  0.00    +0.000 A 
ATOM      8  C   UNL     1       1.473   3.449   0.000  0.00  0.00    +0.000 A 
ATOM     12  C   UNL     1       1.473   4.949   0.000  0.00  0.00    +0.000 A 
ATOM     13  C   UNL     1       2.772   5.699   0.000  0.00  0.00    +0.000 A 
BRANCH   8   9
ATOM      9  N   UNL     1       0.174   2.699   0.000  0.00  0.00    +1.000 N 
ATOM     10  O   UNL     1       0.174   1.199   0.000  0.00  0.00    +0.000 OA
ATOM     11  O   UNL     1      -1.125   3.449   0.000  0.00  0.00    -1.000 OA
ENDBRANCH   8   9
ENDBRANCH   2   5
BRANCH   2  14
ATOM     14  C   UNL     1       6.669   6.449   0.000  0.00  0.00    +0.000 A 
ATOM     15  C   UNL     1       7.968   5.699   0.000  0.00  0.00    +0.000 A 
ATOM     16  C   UNL     1       9.267   6.449   0.000  0.00  0.00    +0.000 A 
ATOM     17  C   UNL     1       9.267   7.949   0.000  0.00  0.00    +0.000 A 
ATOM     23  C   UNL     1       7.968   8.699   0.000  0.00  0.00    +0.000 A 
ATOM     24  C   UNL     1       6.669   7.949   0.000  0.00  0.00    +0.000 A 
BRANCH  17  18
ATOM     18  N   UNL     1      10.566   8.699   0.000  0.00  0.00    +0.000 N 
ATOM     19  H   UNL     1      11.419   8.206   0.000  0.00  0.00    +0.000 HD
ATOM     20  C   UNL     1      10.566  10.199   0.000  0.00  0.00    +0.000 C 
ATOM     21  C   UNL     1       9.267  10.949   0.000  0.00  0.00    +0.000 C 
ATOM     22  O   UNL     1      11.865  10.949   0.000  0.00  0.00    +0.000 OA
ENDBRANCH  17  18
ENDBRANCH   2  14
BRANCH   2   3
ATOM      3  O   UNL     1       6.120   4.399   0.000  0.00  0.00    +0.000 OA
ATOM      4  H   UNL     1       5.635   3.559   0.000  0.00  0.00    +0.000 HD
ENDBRANCH   2   3
TORSDOF 5