REMARK  Name = 343550
REMARK  5 active torsions:
REMARK  status: ('A' for Active; 'I' for Inactive)
REMARK    1  A    between atoms: C_4  and  C_15
REMARK    2  A    between atoms: C_7  and  N_9
REMARK    3  A    between atoms: S_10  and  C_11
REMARK    4  A    between atoms: S_10  and  C_16
REMARK    5  A    between atoms: C_14  and  C_16
REMARK                            x       y       z     vdW  Elec       q    Type
REMARK                         _______ _______ _______ _____ _____    ______ ____
ROOT
ATOM      7  N   UNL     1       0.620   1.021   0.000  0.00  0.00    -0.187 N 
ATOM      8  C   UNL     1       1.675  -0.046   0.000  0.00  0.00    +0.215 A 
ATOM      9  N   UNL     1       3.015   0.627   0.000  0.00  0.00    -0.101 NA
ATOM     10  N   UNL     1       2.789   2.110   0.000  0.00  0.00    -0.022 NA
ATOM     15  N   UNL     1       1.309   2.353   0.000  0.00  0.00    -0.038 NA
ENDROOT
BRANCH   7   6
ATOM      1 BR   UNL     1      -5.311   0.118   0.000  0.00  0.00    -0.050 Br
ATOM      2  C   UNL     1      -3.829   0.343   0.000  0.00  0.00    +0.021 A 
ATOM      3  C   UNL     1      -2.892  -0.828   0.000  0.00  0.00    -0.034 A 
ATOM      4  C   UNL     1      -3.438  -2.225   0.000  0.00  0.00    +0.045 C 
ATOM      5  C   UNL     1      -1.409  -0.602   0.000  0.00  0.00    +0.032 A 
ATOM      6  C   UNL     1      -0.863   0.795   0.000  0.00  0.00    +0.070 A 
ATOM     16  C   UNL     1      -1.800   1.966   0.000  0.00  0.00    +0.029 A 
ATOM     17  C   UNL     1      -3.283   1.741   0.000  0.00  0.00    +0.017 A 
ENDBRANCH   7   6
BRANCH   8  11
ATOM     11  S   UNL     1       1.431  -1.526   0.000  0.00  0.00    -0.071 S 
BRANCH  11  12
ATOM     12  C   UNL     1       2.591  -2.477   0.000  0.00  0.00    +0.165 C 
BRANCH  12  13
ATOM     13  C   UNL     1       3.994  -1.948   0.000  0.00  0.00    -0.094 C 
ATOM     14  C   UNL     1       5.398  -1.419   0.000  0.00  0.00    +0.004 C 
ENDBRANCH  12  13
ENDBRANCH  11  12
ENDBRANCH   8  11
TORSDOF 4