REMARK  Name = 34777
REMARK  7 active torsions:
REMARK  status: ('A' for Active; 'I' for Inactive)
REMARK    1  A    between atoms: C_7  and  C_13
REMARK    2  A    between atoms: C_8  and  C_9
REMARK    3  A    between atoms: C_9  and  O_11
REMARK    4  A    between atoms: O_11  and  C_12
REMARK    5  A    between atoms: C_13  and  C_14
REMARK    6  A    between atoms: C_14  and  O_16
REMARK    7  A    between atoms: O_16  and  C_17
REMARK                            x       y       z     vdW  Elec       q    Type
REMARK                         _______ _______ _______ _____ _____    ______ ____
ROOT
ATOM      1  O   UNL     1       2.602   3.750   0.000  0.00  0.00    -0.247 OA
ATOM      2  C   UNL     1       3.972   3.140   0.000  0.00  0.00    +0.325 A 
ATOM      3  N   UNL     1       5.271   3.890   0.000  0.00  0.00    -0.309 N 
ATOM      4  C   UNL     1       6.386   2.886   0.000  0.00  0.00    +0.061 A 
ATOM     10  C   UNL     1       5.776   1.516   0.000  0.00  0.00    +0.148 A 
ATOM     15  H   UNL     1       5.428   5.382   0.000  0.00  0.00    +0.170 HD
ATOM     16  N   UNL     1       4.284   1.673   0.000  0.00  0.00    -0.301 N 
ATOM     17  H   UNL     1       3.281   0.558   0.000  0.00  0.00    +0.171 HD
ENDROOT
BRANCH  10  11
ATOM     11  C   UNL     1       6.526   0.217   0.000  0.00  0.00    +0.357 C 
ATOM     14  O   UNL     1       8.026   0.217   0.000  0.00  0.00    -0.243 OA
BRANCH  11  12
ATOM     12  O   UNL     1       5.776  -1.082   0.000  0.00  0.00    -0.463 OA
ATOM     13  C   UNL     1       4.276  -1.082   0.000  0.00  0.00    +0.280 C 
ENDBRANCH  11  12
ENDBRANCH  10  11
BRANCH   4   5
ATOM      5  C   UNL     1       7.853   3.199   0.000  0.00  0.00    +0.176 C 
BRANCH   5   6
ATOM      6  C   UNL     1       8.316   4.625   0.000  0.00  0.00    +0.313 C 
ATOM      9  O   UNL     1       9.784   4.937   0.000  0.00  0.00    -0.250 OA
BRANCH   6   7
ATOM      7  O   UNL     1       7.313   5.740   0.000  0.00  0.00    -0.468 OA
ATOM      8  C   UNL     1       7.776   7.166   0.000  0.00  0.00    +0.280 C 
ENDBRANCH   6   7
ENDBRANCH   5   6
ENDBRANCH   4   5
TORSDOF 5