REMARK  Name = 339594
REMARK  9 active torsions:
REMARK  status: ('A' for Active; 'I' for Inactive)
REMARK    1  A    between atoms: C_1  and  N_14
REMARK    2  A    between atoms: C_2  and  C_17
REMARK    3  A    between atoms: C_3  and  C_18
REMARK    4  A    between atoms: C_5  and  C_19
REMARK    5  A    between atoms: C_6  and  S_7
REMARK    6  A    between atoms: S_7  and  C_8
REMARK    7  A    between atoms: C_9  and  C_21
REMARK    8  A    between atoms: C_11  and  C_24
REMARK    9  A    between atoms: C_12  and  C_23
REMARK                            x       y       z     vdW  Elec       q    Type
REMARK                         _______ _______ _______ _____ _____    ______ ____
ROOT
ATOM      1  C   UNL     1      -0.101   6.870   0.000  0.00  0.00    +0.298 A 
ATOM      5  C   UNL     1       0.649   5.571   0.000  0.00  0.00    +0.117 A 
ATOM      6  C   UNL     1      -0.101   4.272   0.000  0.00  0.00    +0.073 C 
ATOM      7  N   UNL     1       2.150   5.571   0.000  0.00  0.00    -0.237 NA
ATOM      8  C   UNL     1       2.900   6.870   0.000  0.00  0.00    +0.121 A 
ATOM     20  C   UNL     1       2.150   8.169   0.000  0.00  0.00    +0.093 A 
ATOM     23  C   UNL     1       0.649   8.169   0.000  0.00  0.00    +0.048 A 
ATOM     24  C   UNL     1      -0.101   9.468   0.000  0.00  0.00    +0.052 C 
ENDROOT
BRANCH   1   2
ATOM      2  N   UNL     1      -1.601   6.870   0.000  0.00  0.00    +0.082 N 
ATOM      3  O   UNL     1      -2.350   5.571   0.000  0.00  0.00    +0.042 OA
ATOM      4  O   UNL     1      -2.350   8.169   0.000  0.00  0.00    -0.576 OA
ENDBRANCH   1   2
BRANCH  20  21
ATOM     21  C   UNL     1       2.900   9.468   0.000  0.00  0.00    +0.102 C 
ATOM     22  N   UNL     1       3.650  10.767   0.000  0.00  0.00    -0.191 NA
ENDBRANCH  20  21
BRANCH   8   9
ATOM      9  S   UNL     1       4.399   6.870   0.000  0.00  0.00    -0.048 S 
BRANCH   9  10
ATOM     10  C   UNL     1       5.149   8.169   0.000  0.00  0.00    +0.121 A 
ATOM     11  C   UNL     1       6.649   8.169   0.000  0.00  0.00    +0.087 A 
ATOM     14  C   UNL     1       7.399   9.468   0.000  0.00  0.00    -0.029 A 
ATOM     15  C   UNL     1       8.899   9.468   0.000  0.00  0.00    +0.045 C 
ATOM     16  C   UNL     1       6.649  10.767   0.000  0.00  0.00    +0.027 A 
ATOM     17  C   UNL     1       5.149  10.767   0.000  0.00  0.00    +0.040 A 
ATOM     18  C   UNL     1       4.399  12.066   0.000  0.00  0.00    +0.065 C 
ATOM     19  N   UNL     1       4.399   9.468   0.000  0.00  0.00    -0.244 NA
BRANCH  11  12
ATOM     12  C   UNL     1       7.399   6.870   0.000  0.00  0.00    +0.102 C 
ATOM     13  N   UNL     1       8.149   5.571   0.000  0.00  0.00    -0.191 NA
ENDBRANCH  11  12
ENDBRANCH   9  10
ENDBRANCH   8   9
TORSDOF 5