REMARK  Name = 347463
REMARK  9 active torsions:
REMARK  status: ('A' for Active; 'I' for Inactive)
REMARK    1  A    between atoms: O_1  and  C_2
REMARK    2  A    between atoms: O_1  and  C_17
REMARK    3  A    between atoms: C_2  and  C_4
REMARK    4  A    between atoms: C_7  and  C_19
REMARK    5  A    between atoms: C_8  and  C_9
REMARK    6  A    between atoms: O_11  and  C_15
REMARK    7  A    between atoms: O_11  and  C_19
REMARK    8  A    between atoms: C_15  and  C_20
REMARK    9  A    between atoms: C_17  and  C_18
REMARK                            x       y       z     vdW  Elec       q    Type
REMARK                         _______ _______ _______ _____ _____    ______ ____
ROOT
ATOM      9  C   UNL     1      -0.363   0.846   0.000  0.00  0.00    +0.160 A 
ATOM     10  C   UNL     1       1.116   0.599   0.000  0.00  0.00    +0.052 A 
ATOM     11  C   UNL     1       1.338  -0.885   0.000  0.00  0.00    +0.049 A 
ATOM     12  C   UNL     1      -0.004  -1.554   0.000  0.00  0.00    +0.143 A 
ATOM     23  O   UNL     1      -1.056  -0.485   0.000  0.00  0.00    -0.454 OA
ENDROOT
BRANCH   9   7
ATOM      5  C   UNL     1      -2.735   3.919   0.000  0.00  0.00    +0.155 A 
ATOM      6  N   UNL     1      -2.513   2.435   0.000  0.00  0.00    -0.229 NA
ATOM      7  C   UNL     1      -1.033   2.188   0.000  0.00  0.00    +0.144 A 
ATOM      8  S   UNL     1      -0.341   3.519   0.000  0.00  0.00    -0.072 S 
ATOM     24  C   UNL     1      -1.393   4.588   0.000  0.00  0.00    +0.082 A 
BRANCH   5   4
ATOM      4  C   UNL     1      -4.065   4.611   0.000  0.00  0.00    +0.358 C 
ATOM     25  O   UNL     1      -4.131   6.110   0.000  0.00  0.00    -0.243 OA
BRANCH   4   1
ATOM      1  O   UNL     1      -5.330   3.805   0.000  0.00  0.00    -0.460 OA
BRANCH   1   2
ATOM      2  C   UNL     1      -6.661   4.497   0.000  0.00  0.00    +0.229 C 
ATOM      3  C   UNL     1      -6.727   5.996   0.000  0.00  0.00    +0.048 C 
ENDBRANCH   1   2
ENDBRANCH   4   1
ENDBRANCH   5   4
ENDBRANCH   9   7
BRANCH  12  13
ATOM     13  C   UNL     1      -0.251  -3.034   0.000  0.00  0.00    +0.306 C 
BRANCH  13  14
ATOM     14  O   UNL     1       0.906  -3.988   0.000  0.00  0.00    -0.453 OA
BRANCH  14  15
ATOM     15  C   UNL     1       2.199  -3.226   0.000  0.00  0.00    +0.340 C 
ATOM     22  O   UNL     1       2.185  -1.726   0.000  0.00  0.00    -0.245 OA
BRANCH  15  16
ATOM     16  C   UNL     1       3.504  -3.964   0.000  0.00  0.00    +0.059 A 
ATOM     17  C   UNL     1       4.797  -3.203   0.000  0.00  0.00    +0.015 A 
ATOM     18  C   UNL     1       6.102  -3.941   0.000  0.00  0.00    +0.001 A 
ATOM     19  C   UNL     1       6.116  -5.441   0.000  0.00  0.00    +0.000 A 
ATOM     20  C   UNL     1       4.823  -6.203   0.000  0.00  0.00    +0.001 A 
ATOM     21  C   UNL     1       3.518  -5.464   0.000  0.00  0.00    +0.015 A 
ENDBRANCH  15  16
ENDBRANCH  14  15
ENDBRANCH  13  14
ENDBRANCH  12  13
TORSDOF 8