REMARK  Name = 343526
REMARK  4 active torsions:
REMARK  status: ('A' for Active; 'I' for Inactive)
REMARK    1  A    between atoms: C_1  and  O_15
REMARK    2  A    between atoms: C_2  and  C_16
REMARK    3  A    between atoms: C_3  and  C_17
REMARK    4  A    between atoms: C_6  and  C_18
REMARK                            x       y       z     vdW  Elec       q    Type
REMARK                         _______ _______ _______ _____ _____    ______ ____
ROOT
ATOM      1  C   UNL     1       7.024  -0.275   0.000  0.00  0.00    +0.123 A 
ATOM      4  C   UNL     1       7.774   1.025   0.000  0.00  0.00    -0.008 A 
ATOM      5  C   UNL     1       9.274   1.025   0.000  0.00  0.00    +0.047 C 
ATOM      6  C   UNL     1       7.024   2.324   0.000  0.00  0.00    +0.015 A 
ATOM      7  C   UNL     1       5.524   2.324   0.000  0.00  0.00    -0.023 A 
ATOM     17  C   UNL     1       4.774   1.025   0.000  0.00  0.00    +0.015 A 
ATOM     18  C   UNL     1       5.524  -0.275   0.000  0.00  0.00    -0.008 A 
ATOM     19  C   UNL     1       4.774  -1.573   0.000  0.00  0.00    +0.047 C 
ENDROOT
BRANCH   7   8
ATOM      8  C   UNL     1       4.774   3.623   0.000  0.00  0.00    +0.028 C 
ATOM      9  C   UNL     1       5.524   4.922   0.000  0.00  0.00    +0.077 C 
ATOM     10  C   UNL     1       4.914   6.292   0.000  0.00  0.00    +0.256 C 
ATOM     11  N   UNL     1       6.029   7.296   0.000  0.00  0.00    -0.270 N 
ATOM     12  H   UNL     1       5.872   8.787   0.000  0.00  0.00    +0.156 HD
ATOM     13  C   UNL     1       7.328   6.546   0.000  0.00  0.00    +0.118 C 
ATOM     14  S   UNL     1       8.698   7.156   0.000  0.00  0.00    -0.027 S 
ATOM     15  O   UNL     1       3.447   6.604   0.000  0.00  0.00    -0.269 OA
ATOM     16  S   UNL     1       7.016   5.078   0.000  0.00  0.00    -0.061 S 
ENDBRANCH   7   8
BRANCH   1   2
ATOM      2  O   UNL     1       7.774  -1.574   0.000  0.00  0.00    -0.506 OA
ATOM      3  H   UNL     1       7.306  -2.385   0.000  0.00  0.00    +0.292 HD
ENDBRANCH   1   2
TORSDOF 2