REMARK  Name = 351110
REMARK  5 active torsions:
REMARK  status: ('A' for Active; 'I' for Inactive)
REMARK    1  A    between atoms: O_3  and  C_4
REMARK    2  A    between atoms: O_3  and  C_12
REMARK    3  A    between atoms: C_7  and  C_9
REMARK    4  A    between atoms: C_9  and  O_10
REMARK    5  A    between atoms: O_10  and  C_13
REMARK                            x       y       z     vdW  Elec       q    Type
REMARK                         _______ _______ _______ _____ _____    ______ ____
ROOT
ATOM      1  C   UNL     1      -4.821  -5.149   0.000  0.00  0.00    +0.117 A 
ATOM      2  C   UNL     1      -4.821  -6.649   0.000  0.00  0.00    +0.325 A 
ATOM      3  N   UNL     1      -3.522  -7.399   0.000  0.00  0.00    -0.176 N 
ATOM      4  O   UNL     1      -3.522  -8.899   0.000  0.00  0.00    -0.620 OA
ATOM      5  C   UNL     1      -2.223  -6.649   0.000  0.00  0.00    +0.340 A 
ATOM      6  C   UNL     1      -2.223  -5.149   0.000  0.00  0.00    +0.165 A 
ATOM     11  C   UNL     1      -3.522  -4.399   0.000  0.00  0.00    +0.146 A 
ENDROOT
BRANCH   6   7
ATOM      7  C   UNL     1      -0.924  -4.399   0.000  0.00  0.00    +0.348 C 
ATOM     10  O   UNL     1      -0.924  -2.900   0.000  0.00  0.00    -0.245 OA
BRANCH   7   8
ATOM      8  O   UNL     1       0.375  -5.149   0.000  0.00  0.00    -0.464 OA
ATOM      9  C   UNL     1       1.674  -4.399   0.000  0.00  0.00    +0.280 C 
ENDBRANCH   7   8
ENDBRANCH   6   7
BRANCH  11  12
ATOM     12  O   UNL     1      -3.522  -2.900   0.000  0.00  0.00    -0.494 OA
ATOM     13  C   UNL     1      -2.223  -2.150   0.000  0.00  0.00    +0.277 C 
ENDBRANCH  11  12
TORSDOF 3