REMARK  Name = 34879
REMARK  4 active torsions:
REMARK  status: ('A' for Active; 'I' for Inactive)
REMARK    1  A    between atoms: C_6  and  C_19
REMARK    2  A    between atoms: C_7  and  C_19
REMARK    3  A    between atoms: C_8  and  N_16
REMARK    4  A    between atoms: C_9  and  C_10
REMARK                            x       y       z     vdW  Elec       q    Type
REMARK                         _______ _______ _______ _____ _____    ______ ____
ROOT
ATOM      7  C   UNL     1       7.620   0.332   0.000  0.00  0.00    +0.149 C 
ATOM      8  C   UNL     1       9.120   0.332   0.000  0.00  0.00    +0.111 C 
ATOM     15  C   UNL     1       8.370  -0.967   0.000  0.00  0.00    +0.349 C 
ENDROOT
BRANCH   8   9
ATOM      9  C   UNL     1      10.419   1.082   0.000  0.00  0.00    -0.037 A 
ATOM     10  C   UNL     1      10.419   2.582   0.000  0.00  0.00    +0.004 A 
ATOM     11  C   UNL     1      11.719   3.332   0.000  0.00  0.00    +0.000 A 
ATOM     12  C   UNL     1      13.018   2.582   0.000  0.00  0.00    +0.000 A 
ATOM     13  C   UNL     1      13.018   1.082   0.000  0.00  0.00    +0.000 A 
ATOM     14  C   UNL     1      11.719   0.332   0.000  0.00  0.00    +0.004 A 
ENDBRANCH   8   9
BRANCH  15  16
ATOM     16  N   UNL     1       8.370  -2.467   0.000  0.00  0.00    +0.042 N 
ATOM     17  O   UNL     1       9.669  -3.217   0.000  0.00  0.00    +0.035 OA
ATOM     18  O   UNL     1       7.071  -3.217   0.000  0.00  0.00    -0.582 OA
ENDBRANCH  15  16
BRANCH   7   5
ATOM      5  C   UNL     1       6.321   1.082   0.000  0.00  0.00    +0.174 C 
ATOM      6  O   UNL     1       5.022   0.332   0.000  0.00  0.00    -0.291 OA
BRANCH   5   4
ATOM      1  C   UNL     1       6.321   5.582   0.000  0.00  0.00    +0.000 A 
ATOM      2  C   UNL     1       5.022   4.832   0.000  0.00  0.00    +0.001 A 
ATOM      3  C   UNL     1       5.022   3.332   0.000  0.00  0.00    +0.011 A 
ATOM      4  C   UNL     1       6.321   2.582   0.000  0.00  0.00    +0.018 A 
ATOM     19  C   UNL     1       7.620   3.332   0.000  0.00  0.00    +0.011 A 
ATOM     20  C   UNL     1       7.620   4.832   0.000  0.00  0.00    +0.001 A 
ENDBRANCH   5   4
ENDBRANCH   7   5
TORSDOF 4