REMARK  Name = 343343
REMARK  2 active torsions:
REMARK  status: ('A' for Active; 'I' for Inactive)
REMARK    1  A    between atoms: C_6  and  C_9
REMARK    2  A    between atoms: C_9  and  C_10
REMARK                            x       y       z     vdW  Elec       q    Type
REMARK                         _______ _______ _______ _____ _____    ______ ____
ROOT
ATOM      1  C   UNL     1      -3.307  -0.086   0.000  0.00  0.00    +0.041 A 
ATOM      2  C   UNL     1      -3.044  -1.563   0.000  0.00  0.00    +0.129 A 
ATOM      3  N   UNL     1      -1.634  -2.073   0.000  0.00  0.00    -0.243 NA
ATOM      4  C   UNL     1      -0.486  -1.107   0.000  0.00  0.00    +0.124 A 
ATOM      5  C   UNL     1      -0.750   0.370   0.000  0.00  0.00    +0.041 A 
ATOM     13 CL   UNL     1      -4.191  -2.529   0.000  0.00  0.00    -0.062 Cl
ATOM     14  C   UNL     1      -2.160   0.880   0.000  0.00  0.00    +0.016 A 
ENDROOT
BRANCH   5   6
ATOM      6  C   UNL     1       0.398   1.336   0.000  0.00  0.00    +0.201 C 
ATOM     12  O   UNL     1       0.135   2.813   0.000  0.00  0.00    -0.286 OA
BRANCH   6   7
ATOM      7  C   UNL     1       1.808   0.826   0.000  0.00  0.00    +0.059 A 
ATOM      8  S   UNL     1       2.224  -0.615   0.000  0.00  0.00    -0.093 S 
ATOM      9  C   UNL     1       3.724  -0.665   0.000  0.00  0.00    +0.046 A 
ATOM     10  C   UNL     1       4.234   0.745   0.000  0.00  0.00    +0.008 A 
ATOM     11  C   UNL     1       3.050   1.667   0.000  0.00  0.00    +0.019 A 
ENDBRANCH   6   7
ENDBRANCH   5   6
TORSDOF 2