REMARK  Name = 3391
REMARK  11 active torsions:
REMARK  status: ('A' for Active; 'I' for Inactive)
REMARK    1  A    between atoms: C_8  and  O_22
REMARK    2  A    between atoms: C_13  and  O_21
REMARK    3  A    between atoms: O_21  and  C_39
REMARK    4  A    between atoms: O_22  and  C_38
REMARK    5  A    between atoms: CD1_27  and  CG_29
REMARK    6  A    between atoms: CD2_28  and  CG_29
REMARK    7  A    between atoms: CG_29  and  CB_30
REMARK    8  A    between atoms: CB_30  and  CA_32
REMARK    9  A    between atoms: N_31  and  CA_32
REMARK   10  A    between atoms: CA_32  and  C_35
REMARK   11  A    between atoms: C_35  and  OXT_37
REMARK                            x       y       z     vdW  Elec       q    Type
REMARK                         _______ _______ _______ _____ _____    ______ ____
ROOT
ATOM      4  CA  LEU A   1       3.920   3.359   0.000  0.00  0.00    +0.182 C 
ENDROOT
BRANCH   4   9
ATOM      9  N   LEU A   1       3.167   2.055   0.000  0.00  0.00    -0.305 N 
ATOM     10  H   LEU A   1       3.660   1.203   0.000  0.00  0.00    +0.149 HD
ATOM     11  C   UNK A   0       1.663   2.055   0.000  0.00  0.00    +0.326 C 
ATOM     12  O   UNK A   0       0.910   0.752   0.000  0.00  0.00    -0.280 OA
ENDBRANCH   4   9
BRANCH   4   5
ATOM      5  C   LEU A   1       5.424   3.359   0.000  0.00  0.00    +0.325 C 
ATOM      8  O   LEU A   1       6.177   2.055   0.000  0.00  0.00    -0.249 OA
BRANCH   5   6
ATOM      6  OXT LEU A   1       6.177   4.662   0.000  0.00  0.00    -0.479 OA
ATOM      7  HXT LEU A   1       7.114   4.662   0.000  0.00  0.00    +0.295 HD
ENDBRANCH   5   6
ENDBRANCH   4   5
BRANCH   4   3
ATOM      3  CB  LEU A   1       3.167   4.662   0.000  0.00  0.00    +0.036 C 
BRANCH   3   2
ATOM      1  CD1 LEU A   1       0.910   5.965   0.000  0.00  0.00    +0.007 C 
ATOM      2  CG  LEU A   1       1.663   4.662   0.000  0.00  0.00    -0.015 C 
ATOM     13  CD2 LEU A   1       0.910   3.359   0.000  0.00  0.00    +0.007 C 
ENDBRANCH   3   2
ENDBRANCH   4   3
TORSDOF 5