REMARK  Name = 34983
REMARK  6 active torsions:
REMARK  status: ('A' for Active; 'I' for Inactive)
REMARK    1  A    between atoms: C_2  and  C_8
REMARK    2  A    between atoms: C_6  and  C_7
REMARK    3  A    between atoms: N_10  and  C_11
REMARK    4  A    between atoms: C_11  and  C_12
REMARK    5  A    between atoms: C_11  and  C_13
REMARK    6  A    between atoms: C_12  and  C_14
REMARK                            x       y       z     vdW  Elec       q    Type
REMARK                         _______ _______ _______ _____ _____    ______ ____
ROOT
ATOM      3  C   UNL     1      -2.049   5.250   0.000  0.00  0.00    +0.244 C 
ATOM      4  N   UNL     1      -2.049   6.750   0.000  0.00  0.00    -0.309 N 
ATOM      5  H   UNL     1      -1.197   7.242   0.000  0.00  0.00    +0.149 HD
ATOM     10  O   UNL     1      -0.750   4.500   0.000  0.00  0.00    -0.270 OA
ENDROOT
BRANCH   3   2
ATOM      1  C   UNL     1      -4.647   5.250   0.000  0.00  0.00    +0.013 A 
ATOM      2  C   UNL     1      -3.348   4.500   0.000  0.00  0.00    +0.037 A 
ATOM     11  C   UNL     1      -3.348   3.000   0.000  0.00  0.00    +0.016 A 
ATOM     12  C   UNL     1      -4.647   2.250   0.000  0.00  0.00    -0.050 A 
ATOM     13  C   UNL     1      -4.647   0.750   0.000  0.00  0.00    +0.044 C 
ATOM     14  C   UNL     1      -5.946   3.000   0.000  0.00  0.00    +0.003 A 
ATOM     15  C   UNL     1      -5.946   4.500   0.000  0.00  0.00    +0.001 A 
ENDBRANCH   3   2
BRANCH   4   6
ATOM      6  C   UNL     1      -3.348   7.500   0.000  0.00  0.00    +0.070 C 
ATOM      7  C   UNL     1      -3.348   9.000   0.000  0.00  0.00    +0.028 C 
BRANCH   6   8
ATOM      8  C   UNL     1      -4.647   6.750   0.000  0.00  0.00    +0.018 C 
ATOM      9  C   UNL     1      -5.946   7.500   0.000  0.00  0.00    +0.005 C 
ENDBRANCH   6   8
ENDBRANCH   4   6
TORSDOF 3