REMARK  Name = 343549
REMARK  5 active torsions:
REMARK  status: ('A' for Active; 'I' for Inactive)
REMARK    1  A    between atoms: C_5  and  C_6
REMARK    2  A    between atoms: C_15  and  C_19
REMARK    3  A    between atoms: C_19  and  C_20
REMARK    4  A    between atoms: C_19  and  C_21
REMARK    5  A    between atoms: C_19  and  C_22
REMARK                            x       y       z     vdW  Elec       q    Type
REMARK                         _______ _______ _______ _____ _____    ______ ____
ROOT
ATOM      1  C   UNL     1       3.313   4.520   0.000  0.00  0.00    +0.181 C 
ATOM      2  C   UNL     1       4.427   3.517   0.000  0.00  0.00    +0.139 C 
ATOM      3  N   UNL     1       3.817   2.146   0.000  0.00  0.00    -0.267 N 
ATOM      4  C   UNL     1       4.567   0.847   0.000  0.00  0.00    +0.249 C 
ATOM     15  O   UNL     1       3.817  -0.452   0.000  0.00  0.00    -0.270 OA
ATOM     16  C   UNL     1       2.325   2.303   0.000  0.00  0.00    +0.139 C 
ATOM     17  C   UNL     1       2.789   0.876   0.000  0.00  0.00    +0.055 C 
ATOM     18  C   UNL     1       1.785  -0.238   0.000  0.00  0.00    +0.004 C 
ATOM     19  C   UNL     1       0.318   0.074   0.000  0.00  0.00    +0.000 C 
ATOM     20  C   UNL     1      -0.145   1.500   0.000  0.00  0.00    +0.004 C 
ATOM     21  C   UNL     1       0.858   2.615   0.000  0.00  0.00    +0.055 C 
ATOM     22  O   UNL     1       2.014   3.770   0.000  0.00  0.00    -0.354 OA
ENDROOT
BRANCH   4   5
ATOM      5  C   UNL     1       6.067   0.847   0.000  0.00  0.00    +0.037 A 
ATOM      6  C   UNL     1       6.817  -0.452   0.000  0.00  0.00    +0.013 A 
ATOM      7  C   UNL     1       8.317  -0.452   0.000  0.00  0.00    +0.005 A 
ATOM      8  C   UNL     1       9.067   0.847   0.000  0.00  0.00    -0.042 A 
ATOM     13  C   UNL     1       8.317   2.146   0.000  0.00  0.00    +0.005 A 
ATOM     14  C   UNL     1       6.817   2.146   0.000  0.00  0.00    +0.013 A 
BRANCH   8   9
ATOM      9  C   UNL     1      10.567   0.847   0.000  0.00  0.00    -0.013 C 
ATOM     10  C   UNL     1      12.067   0.847   0.000  0.00  0.00    +0.015 C 
ATOM     11  C   UNL     1      10.567   2.347   0.000  0.00  0.00    +0.015 C 
ATOM     12  C   UNL     1      10.567  -0.653   0.000  0.00  0.00    +0.015 C 
ENDBRANCH   8   9
ENDBRANCH   4   5
TORSDOF 2