REMARK  Name = 339589
REMARK  3 active torsions:
REMARK  status: ('A' for Active; 'I' for Inactive)
REMARK    1  A    between atoms: C_7  and  C_8
REMARK    2  A    between atoms: C_13  and  C_21
REMARK    3  A    between atoms: N_15  and  C_21
REMARK                            x       y       z     vdW  Elec       q    Type
REMARK                         _______ _______ _______ _____ _____    ______ ____
ROOT
ATOM      6  C   UNL     1       6.750   2.653   0.000  0.00  0.00    +0.080 A 
ATOM      7  N   UNL     1       7.632   1.440   0.000  0.00  0.00    -0.225 NA
ATOM      8  C   UNL     1       9.058   1.903   0.000  0.00  0.00    +0.165 A 
ATOM      9  N   UNL     1      10.272   1.022   0.000  0.00  0.00    -0.264 N 
ATOM     10  H   UNL     1      10.255   0.037   0.000  0.00  0.00    +0.157 HD
ATOM     11  C   UNL     1      11.515   1.860   0.000  0.00  0.00    +0.233 C 
ATOM     18  O   UNL     1      11.411   3.357   0.000  0.00  0.00    -0.274 OA
ATOM     19  S   UNL     1       9.058   3.403   0.000  0.00  0.00    -0.060 S 
ATOM     20  C   UNL     1       7.632   3.867   0.000  0.00  0.00    +0.076 A 
ENDROOT
BRANCH   6   5
ATOM      1 CL   UNL     1       0.750   2.653   0.000  0.00  0.00    -0.084 Cl
ATOM      2  C   UNL     1       2.250   2.653   0.000  0.00  0.00    +0.041 A 
ATOM      3  C   UNL     1       3.000   1.354   0.000  0.00  0.00    +0.020 A 
ATOM      4  C   UNL     1       4.500   1.354   0.000  0.00  0.00    +0.011 A 
ATOM      5  C   UNL     1       5.250   2.653   0.000  0.00  0.00    +0.001 A 
ATOM     21  C   UNL     1       4.500   3.952   0.000  0.00  0.00    +0.011 A 
ATOM     22  C   UNL     1       3.000   3.952   0.000  0.00  0.00    +0.020 A 
ENDBRANCH   6   5
BRANCH  11  12
ATOM     12  C   UNL     1      12.864   1.203   0.000  0.00  0.00    +0.180 C 
BRANCH  12  13
ATOM     13  N   UNL     1      12.968  -0.293   0.000  0.00  0.00    -0.294 NA
ATOM     14  C   UNL     1      14.240  -1.088   0.000  0.00  0.00    +0.085 C 
ATOM     15  C   UNL     1      13.877  -2.544   0.000  0.00  0.00    +0.017 C 
ATOM     16  C   UNL     1      12.381  -2.648   0.000  0.00  0.00    +0.017 C 
ATOM     17  C   UNL     1      11.819  -1.258   0.000  0.00  0.00    +0.085 C 
ENDBRANCH  12  13
ENDBRANCH  11  12
TORSDOF 3