REMARK  Name = 342459
REMARK  13 active torsions:
REMARK  status: ('A' for Active; 'I' for Inactive)
REMARK    1  A    between atoms: O_1  and  C_2
REMARK    2  A    between atoms: O_1  and  C_26
REMARK    3  A    between atoms: C_2  and  C_28
REMARK    4  A    between atoms: N_4  and  C_28
REMARK    5  A    between atoms: C_6  and  C_29
REMARK    6  A    between atoms: C_10  and  C_30
REMARK    7  A    between atoms: C_11  and  C_31
REMARK    8  A    between atoms: N_14  and  C_32
REMARK    9  A    between atoms: N_19  and  C_20
REMARK   10  A    between atoms: C_21  and  O_33
REMARK   11  A    between atoms: C_26  and  C_27
REMARK   12  A    between atoms: C_31  and  C_32
REMARK   13  A    between atoms: O_33  and  C_34
REMARK                            x       y       z     vdW  Elec       q    Type
REMARK                         _______ _______ _______ _____ _____    ______ ____
ROOT
ATOM      6  N   UNL     1       1.275   9.685   0.000  0.00  0.00    -0.254 N 
ATOM      7  C   UNL     1       2.156   8.471   0.000  0.00  0.00    +0.048 A 
ATOM      8  C   UNL     1       1.693   7.045   0.000  0.00  0.00    +0.066 C 
ATOM      9  C   UNL     1       3.583   8.935   0.000  0.00  0.00    +0.062 A 
ATOM     10  C   UNL     1       4.882   8.185   0.000  0.00  0.00    -0.026 A 
ATOM     11  C   UNL     1       4.882   6.685   0.000  0.00  0.00    +0.045 C 
ATOM     12  C   UNL     1       6.181   8.935   0.000  0.00  0.00    +0.042 A 
ATOM     29  C   UNL     1       6.181  10.435   0.000  0.00  0.00    +0.342 A 
ATOM     30  O   UNL     1       7.480  11.185   0.000  0.00  0.00    -0.245 OA
ATOM     31  O   UNL     1       4.882  11.185   0.000  0.00  0.00    -0.402 OA
ATOM     32  C   UNL     1       3.583  10.435   0.000  0.00  0.00    +0.250 A 
ATOM     33  N   UNL     1       2.156  10.898   0.000  0.00  0.00    -0.132 NA
ENDROOT
BRANCH   6   5
ATOM      5  C   UNL     1      -0.225   9.685   0.000  0.00  0.00    +0.264 C 
BRANCH   5   4
ATOM      4  C   UNL     1      -0.975   8.386   0.000  0.00  0.00    +0.329 C 
ATOM     34  O   UNL     1      -2.475   8.386   0.000  0.00  0.00    -0.249 OA
BRANCH   4   1
ATOM      1  O   UNL     1      -0.225   7.087   0.000  0.00  0.00    -0.464 OA
BRANCH   1   2
ATOM      2  C   UNL     1      -0.975   5.787   0.000  0.00  0.00    +0.229 C 
ATOM      3  C   UNL     1      -2.475   5.787   0.000  0.00  0.00    +0.048 C 
ENDBRANCH   1   2
ENDBRANCH   4   1
ENDBRANCH   5   4
ENDBRANCH   6   5
BRANCH  12  13
ATOM     13  C   UNL     1       7.480   8.185   0.000  0.00  0.00    +0.058 C 
BRANCH  13  14
ATOM     14  C   UNL     1       8.629   9.149   0.000  0.00  0.00    +0.089 C 
BRANCH  14  15
ATOM     15  N   UNL     1      10.039   8.636   0.000  0.00  0.00    -0.299 NA
ATOM     16  C   UNL     1      10.299   7.159   0.000  0.00  0.00    +0.103 C 
ATOM     17  C   UNL     1      11.709   6.646   0.000  0.00  0.00    +0.120 C 
ATOM     18  N   UNL     1      12.858   7.610   0.000  0.00  0.00    -0.325 N 
ATOM     27  C   UNL     1      12.597   9.087   0.000  0.00  0.00    +0.120 C 
ATOM     28  C   UNL     1      11.188   9.600   0.000  0.00  0.00    +0.103 C 
BRANCH  18  19
ATOM     19  C   UNL     1      14.267   7.097   0.000  0.00  0.00    +0.072 A 
ATOM     20  C   UNL     1      14.528   5.619   0.000  0.00  0.00    +0.141 A 
ATOM     23  C   UNL     1      15.937   5.106   0.000  0.00  0.00    +0.047 A 
ATOM     24  C   UNL     1      17.086   6.071   0.000  0.00  0.00    +0.004 A 
ATOM     25  C   UNL     1      16.826   7.548   0.000  0.00  0.00    +0.002 A 
ATOM     26  C   UNL     1      15.416   8.061   0.000  0.00  0.00    +0.027 A 
BRANCH  20  21
ATOM     21  O   UNL     1      13.379   4.655   0.000  0.00  0.00    -0.493 OA
ATOM     22  C   UNL     1      11.969   5.168   0.000  0.00  0.00    +0.277 C 
ENDBRANCH  20  21
ENDBRANCH  18  19
ENDBRANCH  14  15
ENDBRANCH  13  14
ENDBRANCH  12  13
TORSDOF 9