REMARK  Name = 602617
REMARK  2 active torsions:
REMARK  status: ('A' for Active; 'I' for Inactive)
REMARK    1  A    between atoms: C_2  and  C_17
REMARK    2  A    between atoms: C_3  and  C_18
REMARK                            x       y       z     vdW  Elec       q    Type
REMARK                         _______ _______ _______ _____ _____    ______ ____
ROOT
ATOM      1  N   UNL     1       3.348   5.250   0.000  0.00  0.00    -0.245 NA
ATOM      2  C   UNL     1       4.647   4.500   0.000  0.00  0.00    +0.140 A 
ATOM      3  C   UNL     1       5.946   5.250   0.000  0.00  0.00    +0.214 C 
ATOM      4  O   UNL     1       5.946   6.750   0.000  0.00  0.00    -0.285 OA
ATOM      5  C   UNL     1       7.245   4.500   0.000  0.00  0.00    +0.035 A 
ATOM      6  C   UNL     1       8.544   5.250   0.000  0.00  0.00    +0.012 A 
ATOM      7  C   UNL     1       9.843   4.500   0.000  0.00  0.00    +0.001 A 
ATOM      8  C   UNL     1       9.843   3.000   0.000  0.00  0.00    +0.001 A 
ATOM      9  C   UNL     1       8.544   2.250   0.000  0.00  0.00    +0.012 A 
ATOM     10  C   UNL     1       7.245   3.000   0.000  0.00  0.00    +0.035 A 
ATOM     11  C   UNL     1       5.946   2.250   0.000  0.00  0.00    +0.214 C 
ATOM     12  O   UNL     1       5.946   0.750   0.000  0.00  0.00    -0.285 OA
ATOM     13  C   UNL     1       4.647   3.000   0.000  0.00  0.00    +0.140 A 
ATOM     14  N   UNL     1       3.348   2.250   0.000  0.00  0.00    -0.245 NA
ATOM     15  C   UNL     1       2.049   3.000   0.000  0.00  0.00    +0.060 A 
ATOM     16  C   UNL     1       0.750   2.250   0.000  0.00  0.00    +0.067 C 
ATOM     17  C   UNL     1       2.049   4.500   0.000  0.00  0.00    +0.060 A 
ATOM     18  C   UNL     1       0.750   5.250   0.000  0.00  0.00    +0.067 C 
ENDROOT
TORSDOF 0