REMARK  Name = 53908
REMARK  9 active torsions:
REMARK  status: ('A' for Active; 'I' for Inactive)
REMARK    1  A    between atoms: C_5  and  C_8
REMARK    2  A    between atoms: C_6  and  O_24
REMARK    3  A    between atoms: C_15  and  O_18
REMARK    4  A    between atoms: C_16  and  O_20
REMARK    5  A    between atoms: C_17  and  O_22
REMARK    6  A    between atoms: O_18  and  C_19
REMARK    7  A    between atoms: O_20  and  C_21
REMARK    8  A    between atoms: O_22  and  C_23
REMARK    9  A    between atoms: O_24  and  C_25
REMARK                            x       y       z     vdW  Elec       q    Type
REMARK                         _______ _______ _______ _____ _____    ______ ____
ROOT
ATOM      1  O   UNL     1     -12.716  -1.025   0.000  0.00  0.00    -0.287 OA
ATOM      2  C   UNL     1     -11.417  -0.275   0.000  0.00  0.00    +0.197 A 
ATOM      3  C   UNL     1     -11.417   1.226   0.000  0.00  0.00    +0.109 A 
ATOM      4  C   UNL     1     -12.716   1.976   0.000  0.00  0.00    +0.180 A 
ATOM      7  C   UNL     1     -12.716   3.475   0.000  0.00  0.00    +0.204 A 
ATOM     10  C   UNL     1     -11.417   4.226   0.000  0.00  0.00    +0.169 A 
ATOM     13  C   UNL     1     -10.118   3.475   0.000  0.00  0.00    +0.096 A 
ATOM     14  C   UNL     1     -10.118   1.976   0.000  0.00  0.00    +0.146 A 
ATOM     15  O   UNL     1      -8.819   1.226   0.000  0.00  0.00    -0.454 OA
ATOM     16  C   UNL     1      -8.819  -0.275   0.000  0.00  0.00    +0.139 A 
ATOM     25  C   UNL     1     -10.118  -1.025   0.000  0.00  0.00    +0.098 A 
ENDROOT
BRANCH  16  17
ATOM     17  C   UNL     1      -7.520  -1.025   0.000  0.00  0.00    +0.018 A 
ATOM     18  C   UNL     1      -7.520  -2.525   0.000  0.00  0.00    +0.015 A 
ATOM     19  C   UNL     1      -6.221  -3.275   0.000  0.00  0.00    +0.046 A 
ATOM     20  C   UNL     1      -4.922  -2.525   0.000  0.00  0.00    +0.120 A 
ATOM     23  C   UNL     1      -4.922  -1.025   0.000  0.00  0.00    +0.046 A 
ATOM     24  C   UNL     1      -6.221  -0.275   0.000  0.00  0.00    +0.015 A 
BRANCH  20  21
ATOM     21  O   UNL     1      -3.623  -3.275   0.000  0.00  0.00    -0.495 OA
ATOM     22  C   UNL     1      -2.324  -2.525   0.000  0.00  0.00    +0.277 C 
ENDBRANCH  20  21
ENDBRANCH  16  17
BRANCH   4   5
ATOM      5  O   UNL     1     -14.015   1.226   0.000  0.00  0.00    -0.491 OA
ATOM      6  C   UNL     1     -15.314   1.975   0.000  0.00  0.00    +0.277 C 
ENDBRANCH   4   5
BRANCH   7   8
ATOM      8  O   UNL     1     -14.015   4.226   0.000  0.00  0.00    -0.488 OA
ATOM      9  C   UNL     1     -14.015   5.726   0.000  0.00  0.00    +0.277 C 
ENDBRANCH   7   8
BRANCH  10  11
ATOM     11  O   UNL     1     -11.417   5.726   0.000  0.00  0.00    -0.491 OA
ATOM     12  C   UNL     1     -12.716   6.476   0.000  0.00  0.00    +0.277 C 
ENDBRANCH  10  11
TORSDOF 5