REMARK  Name = 4960
REMARK  3 active torsions:
REMARK  status: ('A' for Active; 'I' for Inactive)
REMARK    1  A    between atoms: C_2  and  O_8
REMARK    2  A    between atoms: C_5  and  O_7
REMARK    3  A    between atoms: O_8  and  C_9
REMARK                            x       y       z     vdW  Elec       q    Type
REMARK                         _______ _______ _______ _____ _____    ______ ____
ROOT
ATOM      1  C   UNL     1      -2.873  -2.525   0.000  0.00  0.00    +0.049 A 
ATOM      2  C   UNL     1      -1.573  -3.275   0.000  0.00  0.00    +0.120 A 
ATOM      5  C   UNL     1      -1.573  -4.774   0.000  0.00  0.00    +0.049 A 
ATOM      6  C   UNL     1      -2.873  -5.524   0.000  0.00  0.00    +0.049 A 
ATOM      7  C   UNL     1      -4.172  -4.774   0.000  0.00  0.00    +0.117 A 
ATOM     10  C   UNL     1      -4.172  -3.275   0.000  0.00  0.00    +0.049 A 
ENDROOT
BRANCH   2   3
ATOM      3  O   UNL     1      -0.275  -2.525   0.000  0.00  0.00    -0.495 OA
ATOM      4  C   UNL     1       1.025  -3.275   0.000  0.00  0.00    +0.277 C 
ENDBRANCH   2   3
BRANCH   7   8
ATOM      8  O   UNL     1      -5.471  -5.524   0.000  0.00  0.00    -0.507 OA
ATOM      9  H   UNL     1      -6.282  -5.056   0.000  0.00  0.00    +0.292 HD
ENDBRANCH   7   8
TORSDOF 2