REMARK  Name = 614928
REMARK  6 active torsions:
REMARK  status: ('A' for Active; 'I' for Inactive)
REMARK    1  A    between atoms: C_2  and  O_6
REMARK    2  A    between atoms: C_3  and  C_7
REMARK    3  A    between atoms: C_3  and  C_8
REMARK    4  A    between atoms: C_4  and  C_9
REMARK    5  A    between atoms: C_4  and  C_10
REMARK    6  A    between atoms: C_5  and  O_11
REMARK                            x       y       z     vdW  Elec       q    Type
REMARK                         _______ _______ _______ _____ _____    ______ ____
ROOT
ATOM      1  O   UNL     1       2.780   2.132   0.000  0.00  0.00    -0.322 OA
ATOM      2  C   UNL     1       3.994   3.013   0.000  0.00  0.00    +0.256 C 
ATOM      5  C   UNL     1       3.530   4.440   0.000  0.00  0.00    +0.026 C 
ATOM      6  C   UNL     1       4.957   4.904   0.000  0.00  0.00    +0.016 C 
ATOM      7  C   UNL     1       3.067   5.867   0.000  0.00  0.00    +0.016 C 
ATOM      8  C   UNL     1       2.030   4.440   0.000  0.00  0.00    +0.026 C 
ATOM      9  C   UNL     1       0.530   4.440   0.000  0.00  0.00    +0.016 C 
ATOM     10  C   UNL     1       2.030   5.940   0.000  0.00  0.00    +0.016 C 
ATOM     11  C   UNL     1       1.567   3.013   0.000  0.00  0.00    +0.256 C 
ENDROOT
BRANCH   2   3
ATOM      3  O   UNL     1       5.420   2.550   0.000  0.00  0.00    -0.366 OA
ATOM      4  H   UNL     1       5.622   1.601   0.000  0.00  0.00    +0.212 HD
ENDBRANCH   2   3
BRANCH  11  12
ATOM     12  O   UNL     1       0.140   2.550   0.000  0.00  0.00    -0.366 OA
ATOM     13  H   UNL     1      -0.581   3.199   0.000  0.00  0.00    +0.212 HD
ENDBRANCH  11  12
TORSDOF 2