REMARK  Name = 51812
REMARK  8 active torsions:
REMARK  status: ('A' for Active; 'I' for Inactive)
REMARK    1  A    between atoms: C_5  and  N_26
REMARK    2  A    between atoms: C_7  and  O_32
REMARK    3  A    between atoms: C_14  and  C_29
REMARK    4  A    between atoms: C_15  and  O_25
REMARK    5  A    between atoms: C_20  and  O_24
REMARK    6  A    between atoms: C_22  and  O_23
REMARK    7  A    between atoms: N_26  and  C_27
REMARK    8  A    between atoms: N_26  and  C_28
REMARK                            x       y       z     vdW  Elec       q    Type
REMARK                         _______ _______ _______ _____ _____    ______ ____
ROOT
ATOM      1 CL   UNL     1       7.245   9.000   0.000  0.00  0.00    -0.145 Cl
ATOM      2  H   UNL     1       8.575   9.000   0.000  0.00  0.00    +0.145 HD
ENDROOT
TORSDOF 0