REMARK  Name = 603719
REMARK  1 active torsions:
REMARK  status: ('A' for Active; 'I' for Inactive)
REMARK    1  A    between atoms: C_2  and  O_10
REMARK                            x       y       z     vdW  Elec       q    Type
REMARK                         _______ _______ _______ _____ _____    ______ ____
ROOT
ATOM      1  C   UNL     1      -5.857  -0.750   0.000  0.00  0.00    +0.094 A 
ATOM      2  C   UNL     1      -4.558  -1.500   0.000  0.00  0.00    +0.160 A 
ATOM      3  O   UNL     1      -3.132  -1.037   0.000  0.00  0.00    -0.407 OA
ATOM      4  C   UNL     1      -2.250  -2.250   0.000  0.00  0.00    +0.419 A 
ATOM      5  O   UNL     1      -0.750  -2.250   0.000  0.00  0.00    -0.223 OA
ATOM      6  N   UNL     1      -3.132  -3.463   0.000  0.00  0.00    -0.288 N 
ATOM      7  H   UNL     1      -2.827  -4.400   0.000  0.00  0.00    +0.172 HD
ATOM      8  C   UNL     1      -4.558  -3.000   0.000  0.00  0.00    +0.088 A 
ATOM      9  C   UNL     1      -5.857  -3.750   0.000  0.00  0.00    +0.033 A 
ATOM     10  C   UNL     1      -7.156  -3.000   0.000  0.00  0.00    +0.047 A 
ATOM     11  C   UNL     1      -7.156  -1.500   0.000  0.00  0.00    +0.120 A 
ENDROOT
BRANCH  11  12
ATOM     12  O   UNL     1      -8.455  -0.750   0.000  0.00  0.00    -0.507 OA
ATOM     13  H   UNL     1      -8.455   0.187   0.000  0.00  0.00    +0.292 HD
ENDBRANCH  11  12
TORSDOF 1