REMARK  Name = 603578
REMARK  2 active torsions:
REMARK  status: ('A' for Active; 'I' for Inactive)
REMARK    1  A    between atoms: C_1  and  SI_2
REMARK    2  A    between atoms: SI_2  and  C_3
REMARK                            x       y       z     vdW  Elec       q    Type
REMARK                         _______ _______ _______ _____ _____    ______ ____
ROOT
ATOM      1  C   UNL     1       2.109   4.276   0.000  0.00  0.00    +0.000 C 
ATOM      2 SI   UNL     1       3.408   3.526   0.000  0.00  0.00    +0.000 Si
ATOM      3  C   UNL     1       4.158   2.227   0.000  0.00  0.00    +0.000 C 
ATOM      4  N   UNL     1       5.658   2.227   0.000  0.00  0.00    +1.000 N 
ATOM      5  H   UNL     1       7.068   1.714   0.000  0.00  0.00    +0.000 HD
ATOM      6  H   UNL     1       5.398   0.750   0.000  0.00  0.00    +0.000 HD
ATOM      7 PT   UNL     1       6.408   3.526   0.000  0.00  0.00    +0.000 Pt
ATOM      8 CL   UNL     1       7.778   2.916   0.000  0.00  0.00    +0.000 Cl
ATOM      9 CL   UNL     1       7.778   4.136   0.000  0.00  0.00    +0.000 Cl
ATOM     10 CL   UNL     1       6.872   2.100   0.000  0.00  0.00    +0.000 Cl
ATOM     11 CL   UNL     1       6.872   4.953   0.000  0.00  0.00    +0.000 Cl
ATOM     12  N   UNL     1       5.658   4.825   0.000  0.00  0.00    +1.000 N 
ATOM     13  H   UNL     1       7.068   5.338   0.000  0.00  0.00    +0.000 HD
ATOM     14  H   UNL     1       5.398   6.303   0.000  0.00  0.00    +0.000 HD
ATOM     15  C   UNL     1       4.158   4.825   0.000  0.00  0.00    +0.000 C 
ATOM     16  C   UNL     1       2.658   2.227   0.000  0.00  0.00    +0.000 C 
ENDROOT
TORSDOF 0