REMARK  Name = 56817
REMARK  17 active torsions:
REMARK  status: ('A' for Active; 'I' for Inactive)
REMARK    1  A    between atoms: C_3  and  C_34
REMARK    2  A    between atoms: C_5  and  O_37
REMARK    3  A    between atoms: C_7  and  C_31
REMARK    4  A    between atoms: C_8  and  O_38
REMARK    5  A    between atoms: C_10  and  C_13
REMARK    6  A    between atoms: C_11  and  C_33
REMARK    7  A    between atoms: C_12  and  O_32
REMARK    8  A    between atoms: C_14  and  C_25
REMARK    9  A    between atoms: C_17  and  C_30
REMARK   10  A    between atoms: C_18  and  O_23
REMARK   11  A    between atoms: C_20  and  O_24
REMARK   12  A    between atoms: C_21  and  O_29
REMARK   13  A    between atoms: C_22  and  C_28
REMARK   14  A    between atoms: C_25  and  C_26
REMARK   15  A    between atoms: C_25  and  C_27
REMARK   16  A    between atoms: C_34  and  C_35
REMARK   17  A    between atoms: C_34  and  C_36
REMARK                            x       y       z     vdW  Elec       q    Type
REMARK                         _______ _______ _______ _____ _____    ______ ____
ROOT
ATOM      3  C   UNL     1      -7.419 -11.150   0.000  0.00  0.00    +0.070 A 
ATOM      4  C   UNL     1      -8.718 -11.900   0.000  0.00  0.00    +0.170 A 
ATOM      7  C   UNL     1     -10.017 -11.150   0.000  0.00  0.00    +0.163 A 
ATOM     10  C   UNL     1     -10.017  -9.649   0.000  0.00  0.00    +0.008 A 
ATOM     14  C   UNL     1      -8.718  -8.899   0.000  0.00  0.00    -0.006 A 
ATOM     15  C   UNL     1      -8.718  -7.399   0.000  0.00  0.00    +0.013 A 
ATOM     16  C   UNL     1      -7.419  -6.649   0.000  0.00  0.00    -0.039 A 
ATOM     17  C   UNL     1      -7.419  -5.149   0.000  0.00  0.00    +0.044 C 
ATOM     18  C   UNL     1      -6.120  -7.399   0.000  0.00  0.00    +0.031 A 
ATOM     19  C   UNL     1      -6.120  -8.899   0.000  0.00  0.00    +0.133 A 
ATOM     44  C   UNL     1      -7.419  -9.649   0.000  0.00  0.00    +0.038 A 
ENDROOT
BRANCH  18  22
ATOM     22  C   UNL     1      -4.821  -6.649   0.000  0.00  0.00    +0.031 A 
ATOM     23  C   UNL     1      -3.522  -7.399   0.000  0.00  0.00    +0.133 A 
ATOM     26  C   UNL     1      -2.223  -6.649   0.000  0.00  0.00    +0.038 A 
ATOM     27  C   UNL     1      -0.924  -7.399   0.000  0.00  0.00    +0.070 A 
ATOM     30  C   UNL     1       0.375  -6.649   0.000  0.00  0.00    +0.170 A 
ATOM     33  C   UNL     1       0.375  -5.149   0.000  0.00  0.00    +0.163 A 
ATOM     36  C   UNL     1      -0.924  -4.399   0.000  0.00  0.00    +0.008 A 
ATOM     40  C   UNL     1      -2.223  -5.149   0.000  0.00  0.00    -0.006 A 
ATOM     41  C   UNL     1      -3.522  -4.399   0.000  0.00  0.00    +0.013 A 
ATOM     42  C   UNL     1      -4.821  -5.149   0.000  0.00  0.00    -0.039 A 
ATOM     43  C   UNL     1      -6.120  -4.399   0.000  0.00  0.00    +0.044 C 
BRANCH  36  37
ATOM     37  C   UNL     1      -0.924  -2.900   0.000  0.00  0.00    +0.017 C 
ATOM     38  C   UNL     1       0.375  -2.150   0.000  0.00  0.00    +0.012 C 
ATOM     39  C   UNL     1      -2.223  -2.150   0.000  0.00  0.00    +0.012 C 
ENDBRANCH  36  37
BRANCH  23  24
ATOM     24  O   UNL     1      -3.522  -8.899   0.000  0.00  0.00    -0.506 OA
ATOM     25  H   UNL     1      -4.334  -9.368   0.000  0.00  0.00    +0.292 HD
ENDBRANCH  23  24
BRANCH  27  28
ATOM     28  C   UNL     1      -0.924  -8.899   0.000  0.00  0.00    +0.263 C 
ATOM     29  O   UNL     1       0.375  -9.649   0.000  0.00  0.00    -0.296 OA
ENDBRANCH  27  28
BRANCH  30  31
ATOM     31  O   UNL     1       1.674  -7.399   0.000  0.00  0.00    -0.503 OA
ATOM     32  H   UNL     1       1.674  -8.336   0.000  0.00  0.00    +0.292 HD
ENDBRANCH  30  31
BRANCH  33  34
ATOM     34  O   UNL     1       1.674  -4.399   0.000  0.00  0.00    -0.503 OA
ATOM     35  H   UNL     1       2.485  -4.868   0.000  0.00  0.00    +0.292 HD
ENDBRANCH  33  34
ENDBRANCH  18  22
BRANCH  10  11
ATOM     11  C   UNL     1     -11.316  -8.899   0.000  0.00  0.00    +0.017 C 
ATOM     12  C   UNL     1     -11.316  -7.399   0.000  0.00  0.00    +0.012 C 
ATOM     13  C   UNL     1     -12.615  -9.649   0.000  0.00  0.00    +0.012 C 
ENDBRANCH  10  11
BRANCH   3   2
ATOM      1  O   UNL     1      -6.120 -13.400   0.000  0.00  0.00    -0.296 OA
ATOM      2  C   UNL     1      -6.120 -11.900   0.000  0.00  0.00    +0.263 C 
ENDBRANCH   3   2
BRANCH   4   5
ATOM      5  O   UNL     1      -8.718 -13.400   0.000  0.00  0.00    -0.503 OA
ATOM      6  H   UNL     1      -9.530 -13.868   0.000  0.00  0.00    +0.292 HD
ENDBRANCH   4   5
BRANCH   7   8
ATOM      8  O   UNL     1     -11.316 -11.900   0.000  0.00  0.00    -0.503 OA
ATOM      9  H   UNL     1     -12.128 -11.431   0.000  0.00  0.00    +0.292 HD
ENDBRANCH   7   8
BRANCH  19  20
ATOM     20  O   UNL     1      -4.821  -9.649   0.000  0.00  0.00    -0.506 OA
ATOM     21  H   UNL     1      -4.821 -10.586   0.000  0.00  0.00    +0.292 HD
ENDBRANCH  19  20
TORSDOF 11