REMARK  Name = 54650
REMARK  3 active torsions:
REMARK  status: ('A' for Active; 'I' for Inactive)
REMARK    1  A    between atoms: C_5  and  C_8
REMARK    2  A    between atoms: C_16  and  O_18
REMARK    3  A    between atoms: O_18  and  C_19
REMARK                            x       y       z     vdW  Elec       q    Type
REMARK                         _______ _______ _______ _____ _____    ______ ____
ROOT
ATOM      1  O   UNL     1      -6.221   1.226   0.000  0.00  0.00    -0.455 OA
ATOM      2  C   UNL     1      -7.520   1.975   0.000  0.00  0.00    +0.139 A 
ATOM      3  C   UNL     1      -7.520   3.475   0.000  0.00  0.00    +0.050 A 
ATOM      4  C   UNL     1      -8.819   4.225   0.000  0.00  0.00    +0.049 A 
ATOM      5  C   UNL     1     -10.118   3.475   0.000  0.00  0.00    +0.121 A 
ATOM      8  C   UNL     1     -10.118   1.975   0.000  0.00  0.00    +0.061 A 
ATOM      9  C   UNL     1      -8.819   1.225   0.000  0.00  0.00    +0.067 A 
ATOM     10  C   UNL     1      -8.819  -0.275   0.000  0.00  0.00    +0.193 A 
ATOM     11  C   UNL     1      -7.520  -1.025   0.000  0.00  0.00    +0.098 A 
ATOM     12  O   UNL     1     -10.118  -1.025   0.000  0.00  0.00    -0.287 OA
ATOM     13  C   UNL     1      -6.221  -0.275   0.000  0.00  0.00    +0.139 A 
ENDROOT
BRANCH  13  14
ATOM     14  C   UNL     1      -4.922  -1.025   0.000  0.00  0.00    +0.020 A 
ATOM     15  C   UNL     1      -4.922  -2.525   0.000  0.00  0.00    +0.031 A 
ATOM     16  C   UNL     1      -3.623  -3.275   0.000  0.00  0.00    +0.111 A 
ATOM     17  N   UNL     1      -2.324  -2.525   0.000  0.00  0.00    -0.263 NA
ATOM     18  C   UNL     1      -2.324  -1.025   0.000  0.00  0.00    +0.111 A 
ATOM     19  C   UNL     1      -3.623  -0.275   0.000  0.00  0.00    +0.031 A 
ENDBRANCH  13  14
BRANCH   5   6
ATOM      6  O   UNL     1     -11.417   4.225   0.000  0.00  0.00    -0.495 OA
ATOM      7  C   UNL     1     -11.417   5.725   0.000  0.00  0.00    +0.277 C 
ENDBRANCH   5   6
TORSDOF 2