REMARK  Name = 603108
REMARK  5 active torsions:
REMARK  status: ('A' for Active; 'I' for Inactive)
REMARK    1  A    between atoms: C_3  and  N_21
REMARK    2  A    between atoms: C_4  and  C_7
REMARK    3  A    between atoms: N_12  and  C_13
REMARK    4  A    between atoms: N_21  and  C_22
REMARK    5  A    between atoms: N_21  and  C_23
REMARK                            x       y       z     vdW  Elec       q    Type
REMARK                         _______ _______ _______ _____ _____    ______ ____
ROOT
ATOM      6  C   UNL     1       5.899   0.924   0.000  0.00  0.00    +0.256 C 
ATOM      7  N   UNL     1       6.649  -0.375   0.000  0.00  0.00    -0.236 N 
ATOM      8  H   UNL     1       6.157  -1.228   0.000  0.00  0.00    +0.159 HD
ATOM      9  C   UNL     1       8.149  -0.375   0.000  0.00  0.00    +0.310 C 
ATOM     10  N   UNL     1       8.899  -1.674   0.000  0.00  0.00    -0.269 N 
ATOM     11  H   UNL     1       8.407  -2.527   0.000  0.00  0.00    +0.156 HD
ATOM     19  O   UNL     1       8.899   0.924   0.000  0.00  0.00    -0.252 OA
ATOM     20  O   UNL     1       6.649   2.223   0.000  0.00  0.00    -0.270 OA
ENDROOT
BRANCH   6   5
ATOM      1  C   UNL     1       1.400   0.924   0.000  0.00  0.00    +0.005 A 
ATOM      2  C   UNL     1       2.150  -0.375   0.000  0.00  0.00    +0.039 A 
ATOM      3  C   UNL     1       3.650  -0.375   0.000  0.00  0.00    +0.137 A 
ATOM      4  F   UNL     1       4.399  -1.674   0.000  0.00  0.00    -0.205 F 
ATOM      5  C   UNL     1       4.399   0.924   0.000  0.00  0.00    +0.093 A 
ATOM     21  C   UNL     1       3.650   2.223   0.000  0.00  0.00    +0.044 A 
ATOM     25  C   UNL     1       2.150   2.223   0.000  0.00  0.00    +0.024 A 
BRANCH  21  22
ATOM     22  N   UNL     1       4.399   3.522   0.000  0.00  0.00    -0.335 N 
ATOM     23  C   UNL     1       5.899   3.522   0.000  0.00  0.00    +0.129 C 
ATOM     24  C   UNL     1       3.650   4.821   0.000  0.00  0.00    +0.129 C 
ENDBRANCH  21  22
ENDBRANCH   6   5
BRANCH  10  12
ATOM     12  C   UNL     1      10.400  -1.674   0.000  0.00  0.00    +0.035 A 
ATOM     13  C   UNL     1      11.150  -2.973   0.000  0.00  0.00    +0.025 A 
ATOM     14  C   UNL     1      12.650  -2.973   0.000  0.00  0.00    +0.022 A 
ATOM     15  C   UNL     1      13.400  -1.674   0.000  0.00  0.00    +0.041 A 
ATOM     16 CL   UNL     1      14.900  -1.674   0.000  0.00  0.00    -0.084 Cl
ATOM     17  C   UNL     1      12.650  -0.375   0.000  0.00  0.00    +0.022 A 
ATOM     18  C   UNL     1      11.150  -0.375   0.000  0.00  0.00    +0.025 A 
ENDBRANCH  10  12
TORSDOF 3