REMARK  Name = 603577
REMARK  2 active torsions:
REMARK  status: ('A' for Active; 'I' for Inactive)
REMARK    1  A    between atoms: C_1  and  SI_2
REMARK    2  A    between atoms: SI_2  and  C_3
REMARK                            x       y       z     vdW  Elec       q    Type
REMARK                         _______ _______ _______ _____ _____    ______ ____
ROOT
ATOM      1  C   UNL     1      -3.111   0.952   0.000  0.00  0.00    +0.000 C 
ATOM      2 SI   UNL     1      -1.867   0.113   0.000  0.00  0.00    +0.000 Si
ATOM      3  C   UNL     1      -1.029   1.357   0.000  0.00  0.00    +0.000 C 
ATOM      4  N   UNL     1       0.468   1.253   0.000  0.00  0.00    +1.000 N 
ATOM      5  H   UNL     1       1.816   1.910   0.000  0.00  0.00    +0.000 HD
ATOM      6  H   UNL     1       0.311   2.744   0.000  0.00  0.00    +0.000 HD
ATOM      7 PT   UNL     1       1.125  -0.096   0.000  0.00  0.00    +0.000 Pt
ATOM      8 CL   UNL     1       2.369  -0.934   0.000  0.00  0.00    +0.000 Cl
ATOM      9 CL   UNL     1       1.964   1.148   0.000  0.00  0.00    +0.000 Cl
ATOM     10  N   UNL     1       0.287  -1.339   0.000  0.00  0.00    +1.000 N 
ATOM     11  H   UNL     1       1.657  -1.949   0.000  0.00  0.00    +0.000 HD
ATOM     12  H   UNL     1      -0.076  -2.795   0.000  0.00  0.00    +0.000 HD
ATOM     13  C   UNL     1      -1.209  -1.235   0.000  0.00  0.00    +0.000 C 
ATOM     14  C   UNL     1      -2.706  -1.131   0.000  0.00  0.00    +0.000 C 
ENDROOT
TORSDOF 0