REMARK  Name = 58514
REMARK  40 active torsions:
REMARK  status: ('A' for Active; 'I' for Inactive)
REMARK    1  A    between atoms: O_3  and  C_24
REMARK    2  A    between atoms: O_3  and  C_32
REMARK    3  A    between atoms: C_9  and  C_13
REMARK    4  A    between atoms: C_9  and  C_19
REMARK    5  A    between atoms: C_9  and  O_80
REMARK    6  A    between atoms: O_11  and  C_25
REMARK    7  A    between atoms: O_11  and  C_37
REMARK    8  A    between atoms: C_13  and  C_15
REMARK    9  A    between atoms: C_15  and  C_17
REMARK   10  A    between atoms: C_15  and  O_82
REMARK   11  A    between atoms: C_17  and  O_83
REMARK   12  A    between atoms: C_17  and  C_84
REMARK   13  A    between atoms: C_28  and  C_66
REMARK   14  A    between atoms: C_30  and  O_77
REMARK   15  A    between atoms: C_31  and  O_74
REMARK   16  A    between atoms: C_34  and  O_87
REMARK   17  A    between atoms: C_35  and  C_65
REMARK   18  A    between atoms: C_36  and  O_59
REMARK   19  A    between atoms: C_39  and  O_86
REMARK   20  A    between atoms: C_40  and  C_79
REMARK   21  A    between atoms: C_41  and  O_78
REMARK   22  A    between atoms: C_42  and  O_87
REMARK   23  A    between atoms: C_44  and  O_63
REMARK   24  A    between atoms: C_45  and  O_57
REMARK   25  A    between atoms: C_46  and  C_64
REMARK   26  A    between atoms: C_47  and  O_86
REMARK   27  A    between atoms: C_49  and  O_85
REMARK   28  A    between atoms: C_50  and  C_76
REMARK   29  A    between atoms: C_51  and  O_75
REMARK   30  A    between atoms: C_52  and  O_85
REMARK   31  A    between atoms: C_54  and  C_72
REMARK   32  A    between atoms: C_54  and  O_73
REMARK   33  A    between atoms: C_55  and  C_71
REMARK   34  A    between atoms: C_56  and  O_67
REMARK   35  A    between atoms: O_57  and  C_58
REMARK   36  A    between atoms: O_59  and  C_60
REMARK   37  A    between atoms: C_60  and  C_62
REMARK   38  A    between atoms: O_67  and  C_68
REMARK   39  A    between atoms: C_68  and  C_70
REMARK   40  A    between atoms: O_80  and  C_81
REMARK                            x       y       z     vdW  Elec       q    Type
REMARK                         _______ _______ _______ _____ _____    ______ ____
ROOT
ATOM     24  C   UNL     1     -16.900  -3.869   0.000  0.00  0.00    +0.131 A 
ATOM     25  C   UNL     1     -16.900  -5.369   0.000  0.00  0.00    +0.033 A 
ATOM     26  C   UNL     1     -18.199  -6.119   0.000  0.00  0.00    +0.051 C 
ATOM     27  C   UNL     1     -15.601  -6.119   0.000  0.00  0.00    +0.134 A 
ATOM     30  C   UNL     1     -14.302  -5.369   0.000  0.00  0.00    +0.066 A 
ATOM     31  C   UNL     1     -13.003  -6.119   0.000  0.00  0.00    +0.139 A 
ATOM     34  C   UNL     1     -11.704  -5.369   0.000  0.00  0.00    +0.065 A 
ATOM     35  C   UNL     1     -10.405  -6.119   0.000  0.00  0.00    +0.196 C 
ATOM     36  C   UNL     1      -9.106  -5.369   0.000  0.00  0.00    +0.198 C 
ATOM     37  C   UNL     1      -9.106  -3.869   0.000  0.00  0.00    +0.066 C 
ATOM     38  C   UNL     1     -10.405  -3.119   0.000  0.00  0.00    +0.045 C 
ATOM     86  O   UNL     1     -10.405  -7.619   0.000  0.00  0.00    -0.289 OA
ATOM     87  C   UNL     1     -11.704  -3.869   0.000  0.00  0.00    -0.032 A 
ATOM     88  C   UNL     1     -13.003  -3.119   0.000  0.00  0.00    +0.013 A 
ATOM     89  C   UNL     1     -14.302  -3.869   0.000  0.00  0.00    -0.007 A 
ATOM     90  C   UNL     1     -15.601  -3.119   0.000  0.00  0.00    +0.055 A 
ENDROOT
BRANCH  27  28
ATOM     28  O   UNL     1     -15.601  -7.619   0.000  0.00  0.00    -0.506 OA
ATOM     29  H   UNL     1     -16.413  -8.088   0.000  0.00  0.00    +0.292 HD
ENDBRANCH  27  28
BRANCH  31  32
ATOM     32  O   UNL     1     -13.003  -7.619   0.000  0.00  0.00    -0.505 OA
ATOM     33  H   UNL     1     -13.815  -8.087   0.000  0.00  0.00    +0.292 HD
ENDBRANCH  31  32
BRANCH  24  23
ATOM     23  O   UNL     1     -18.199  -3.119   0.000  0.00  0.00    -0.463 OA
BRANCH  23  22
ATOM     13  C   UNL     1     -20.797  -6.119   0.000  0.00  0.00    +0.170 C 
ATOM     14  C   UNL     1     -22.097  -5.369   0.000  0.00  0.00    +0.234 C 
ATOM     19  C   UNL     1     -22.097  -3.869   0.000  0.00  0.00    +0.162 C 
ATOM     20  C   UNL     1     -23.396  -3.119   0.000  0.00  0.00    +0.042 C 
ATOM     21  O   UNL     1     -20.798  -3.119   0.000  0.00  0.00    -0.335 OA
ATOM     22  C   UNL     1     -19.499  -3.869   0.000  0.00  0.00    +0.310 C 
ATOM     91  C   UNL     1     -19.499  -5.369   0.000  0.00  0.00    +0.110 C 
BRANCH  13  12
ATOM     12  O   UNL     1     -21.547  -4.820   0.000  0.00  0.00    -0.344 OA
BRANCH  12  11
ATOM      1  O   UNL     1     -23.538  -6.490   0.000  0.00  0.00    -0.346 OA
ATOM      2  C   UNL     1     -25.015  -6.750   0.000  0.00  0.00    +0.149 C 
ATOM      3  C   UNL     1     -25.528  -8.160   0.000  0.00  0.00    +0.041 C 
ATOM      4  C   UNL     1     -25.979  -5.601   0.000  0.00  0.00    +0.175 C 
ATOM      7  C   UNL     1     -25.466  -4.192   0.000  0.00  0.00    +0.150 C 
ATOM     10  C   UNL     1     -23.989  -3.931   0.000  0.00  0.00    +0.095 C 
ATOM     11  C   UNL     1     -23.025  -5.080   0.000  0.00  0.00    +0.254 C 
BRANCH   4   5
ATOM      5  O   UNL     1     -27.456  -5.862   0.000  0.00  0.00    -0.375 OA
ATOM      6  C   UNL     1     -27.969  -7.271   0.000  0.00  0.00    +0.194 C 
ENDBRANCH   4   5
BRANCH   7   8
ATOM      8  O   UNL     1     -24.502  -5.341   0.000  0.00  0.00    -0.389 OA
ATOM      9  H   UNL     1     -24.834  -6.252   0.000  0.00  0.00    +0.210 HD
ENDBRANCH   7   8
ENDBRANCH  12  11
ENDBRANCH  13  12
BRANCH  14  15
ATOM     15  O   UNL     1     -23.396  -6.119   0.000  0.00  0.00    -0.456 OA
BRANCH  15  16
ATOM     16  C   UNL     1     -23.396  -7.619   0.000  0.00  0.00    +0.304 C 
ATOM     17  C   UNL     1     -24.695  -8.369   0.000  0.00  0.00    +0.136 C 
ATOM     18  O   UNL     1     -22.097  -8.369   0.000  0.00  0.00    -0.251 OA
ENDBRANCH  15  16
ENDBRANCH  14  15
ENDBRANCH  23  22
ENDBRANCH  24  23
BRANCH  37  39
ATOM     39  C   UNL     1      -8.846  -2.392   0.000  0.00  0.00    +0.193 C 
BRANCH  39  40
ATOM     40  O   UNL     1      -7.436  -1.879   0.000  0.00  0.00    -0.372 OA
ATOM     41  C   UNL     1      -7.176  -0.401   0.000  0.00  0.00    +0.194 C 
ENDBRANCH  39  40
BRANCH  39  42
ATOM     42  C   UNL     1      -9.995  -1.428   0.000  0.00  0.00    +0.193 C 
ATOM     50  O   UNL     1     -11.404  -1.940   0.000  0.00  0.00    -0.292 OA
BRANCH  42  43
ATOM     43  C   UNL     1      -9.734   0.050   0.000  0.00  0.00    +0.211 C 
BRANCH  43  44
ATOM     44  O   UNL     1      -8.770   1.199   0.000  0.00  0.00    -0.382 OA
ATOM     45  H   UNL     1      -7.815   1.030   0.000  0.00  0.00    +0.210 HD
ENDBRANCH  43  44
BRANCH  43  46
ATOM     46  C   UNL     1     -10.883   1.014   0.000  0.00  0.00    +0.147 C 
ATOM     47  C   UNL     1     -10.623   2.491   0.000  0.00  0.00    +0.041 C 
BRANCH  46  48
ATOM     48  O   UNL     1     -12.361   1.274   0.000  0.00  0.00    -0.389 OA
ATOM     49  H   UNL     1     -12.692   2.186   0.000  0.00  0.00    +0.210 HD
ENDBRANCH  46  48
ENDBRANCH  43  46
ENDBRANCH  42  43
ENDBRANCH  39  42
ENDBRANCH  37  39
BRANCH  36  51
ATOM     51  O   UNL     1      -7.697  -5.882   0.000  0.00  0.00    -0.340 OA
BRANCH  51  52
ATOM     52  C   UNL     1      -7.184  -7.292   0.000  0.00  0.00    +0.254 C 
ATOM     53  C   UNL     1      -8.148  -8.441   0.000  0.00  0.00    +0.095 C 
ATOM     54  C   UNL     1      -7.635  -9.850   0.000  0.00  0.00    +0.157 C 
ATOM     80  C   UNL     1      -6.157 -10.111   0.000  0.00  0.00    +0.172 C 
ATOM     83  C   UNL     1      -5.193  -8.961   0.000  0.00  0.00    +0.149 C 
ATOM     84  C   UNL     1      -3.716  -9.222   0.000  0.00  0.00    +0.041 C 
ATOM     85  O   UNL     1      -5.706  -7.552   0.000  0.00  0.00    -0.346 OA
BRANCH  80  81
ATOM     81  O   UNL     1      -5.644 -11.520   0.000  0.00  0.00    -0.387 OA
ATOM     82  H   UNL     1      -6.268 -12.263   0.000  0.00  0.00    +0.210 HD
ENDBRANCH  80  81
BRANCH  54  55
ATOM     55  O   UNL     1      -6.885 -11.149   0.000  0.00  0.00    -0.345 OA
BRANCH  55  56
ATOM     56  C   UNL     1      -7.849 -12.298   0.000  0.00  0.00    +0.254 C 
ATOM     57  C   UNL     1      -9.326 -12.038   0.000  0.00  0.00    +0.095 C 
ATOM     58  C   UNL     1     -10.290 -13.187   0.000  0.00  0.00    +0.157 C 
ATOM     74  C   UNL     1      -9.777 -14.596   0.000  0.00  0.00    +0.172 C 
ATOM     77  C   UNL     1      -8.300 -14.857   0.000  0.00  0.00    +0.149 C 
ATOM     78  C   UNL     1      -7.787 -16.266   0.000  0.00  0.00    +0.041 C 
ATOM     79  O   UNL     1      -7.336 -13.708   0.000  0.00  0.00    -0.346 OA
BRANCH  74  75
ATOM     75  O   UNL     1     -10.741 -15.746   0.000  0.00  0.00    -0.387 OA
ATOM     76  H   UNL     1     -11.697 -15.577   0.000  0.00  0.00    +0.210 HD
ENDBRANCH  74  75
BRANCH  58  59
ATOM     59  O   UNL     1     -11.589 -13.937   0.000  0.00  0.00    -0.345 OA
BRANCH  59  60
ATOM     60  C   UNL     1     -12.738 -12.973   0.000  0.00  0.00    +0.254 C 
ATOM     61  C   UNL     1     -12.478 -11.496   0.000  0.00  0.00    +0.099 C 
ATOM     62  C   UNL     1     -13.627 -10.531   0.000  0.00  0.00    +0.107 C 
ATOM     65  C   UNL     1     -13.887 -12.009   0.000  0.00  0.00    +0.045 C 
ATOM     66  C   UNL     1     -15.036 -11.044   0.000  0.00  0.00    +0.236 C 
ATOM     71  C   UNL     1     -15.297 -12.522   0.000  0.00  0.00    +0.162 C 
ATOM     72  C   UNL     1     -13.887 -12.009   0.000  0.00  0.00    +0.042 C 
ATOM     73  O   UNL     1     -14.148 -13.486   0.000  0.00  0.00    -0.345 OA
BRANCH  62  63
ATOM     63  O   UNL     1     -13.366  -9.054   0.000  0.00  0.00    -0.385 OA
ATOM     64  H   UNL     1     -12.455  -8.722   0.000  0.00  0.00    +0.210 HD
ENDBRANCH  62  63
BRANCH  66  67
ATOM     67  O   UNL     1     -16.186 -10.080   0.000  0.00  0.00    -0.456 OA
BRANCH  67  68
ATOM     68  C   UNL     1     -15.925  -8.603   0.000  0.00  0.00    +0.304 C 
ATOM     69  C   UNL     1     -17.074  -7.639   0.000  0.00  0.00    +0.136 C 
ATOM     70  O   UNL     1     -14.515  -8.090   0.000  0.00  0.00    -0.251 OA
ENDBRANCH  67  68
ENDBRANCH  66  67
ENDBRANCH  59  60
ENDBRANCH  58  59
ENDBRANCH  55  56
ENDBRANCH  54  55
ENDBRANCH  51  52
ENDBRANCH  36  51
TORSDOF 28