REMARK  Name = 603624
REMARK  6 active torsions:
REMARK  status: ('A' for Active; 'I' for Inactive)
REMARK    1  A    between atoms: C_1  and  N_9
REMARK    2  A    between atoms: C_10  and  C_11
REMARK    3  A    between atoms: C_10  and  C_12
REMARK    4  A    between atoms: N_21  and  S_22
REMARK    5  A    between atoms: S_22  and  C_25
REMARK    6  A    between atoms: C_28  and  C_31
REMARK                            x       y       z     vdW  Elec       q    Type
REMARK                         _______ _______ _______ _____ _____    ______ ____
ROOT
ATOM      2  N   UNL     1      -1.573   7.774   0.000  0.00  0.00    -0.154 N 
ATOM      3  C   UNL     1      -0.275   8.524   0.000  0.00  0.00    +0.383 C 
ATOM      4  N   UNL     1       1.025   7.774   0.000  0.00  0.00    -0.251 N 
ATOM      5  H   UNL     1       1.877   8.267   0.000  0.00  0.00    +0.241 HD
ATOM      6  H   UNL     1       1.024   6.790   0.000  0.00  0.00    +0.241 HD
ATOM      7  N   UNL     1      -0.275  10.025   0.000  0.00  0.00    -0.008 NA
ATOM      8  C   UNL     1      -1.573  10.775   0.000  0.00  0.00    +0.430 C 
ATOM      9  N   UNL     1      -1.573  12.275   0.000  0.00  0.00    -0.154 N 
ATOM     10  H   UNL     1      -2.426  12.767   0.000  0.00  0.00    +0.256 HD
ATOM     11  C   UNL     1      -0.275  13.025   0.000  0.00  0.00    +0.384 C 
ATOM     12  N   UNL     1       1.025  12.275   0.000  0.00  0.00    -0.156 N 
ATOM     13  H   UNL     1       1.024  11.290   0.000  0.00  0.00    +0.180 HD
ATOM     24  O   UNL     1      -0.275  14.525   0.000  0.00  0.00    -0.232 OA
ATOM     25  N   UNL     1      -2.873  10.025   0.000  0.00  0.00    -0.070 NA
ATOM     26  C   UNL     1      -2.873   8.524   0.000  0.00  0.00    +0.235 C 
ATOM     27  C   UNL     1      -4.350   8.785   0.000  0.00  0.00    +0.096 C 
ATOM     28  C   UNL     1      -3.386   7.115   0.000  0.00  0.00    +0.096 C 
ENDROOT
BRANCH   2   1
ATOM      1  C   UNL     1      -1.574   6.274   0.000  0.00  0.00    +0.100 A 
ATOM     29  C   UNL     1      -0.275   5.524   0.000  0.00  0.00    +0.061 A 
ATOM     30  C   UNL     1      -0.275   4.024   0.000  0.00  0.00    +0.062 A 
ATOM     31 CL   UNL     1       1.025   3.275   0.000  0.00  0.00    -0.082 Cl
ATOM     32  C   UNL     1      -1.573   3.275   0.000  0.00  0.00    +0.059 A 
ATOM     33 CL   UNL     1      -1.574   1.775   0.000  0.00  0.00    -0.082 Cl
ATOM     34  C   UNL     1      -2.873   4.024   0.000  0.00  0.00    +0.024 A 
ATOM     35  C   UNL     1      -2.873   5.524   0.000  0.00  0.00    +0.042 A 
ENDBRANCH   2   1
BRANCH  12  14
ATOM     14  S   UNL     1       2.324  13.025   0.000  0.00  0.00    +0.077 S 
ATOM     22  O   UNL     1       3.074  11.726   0.000  0.00  0.00    -0.150 OA
ATOM     23  O   UNL     1       1.574  14.324   0.000  0.00  0.00    -0.150 OA
BRANCH  14  15
ATOM     15  C   UNL     1       3.623  13.775   0.000  0.00  0.00    +0.109 A 
ATOM     16  C   UNL     1       4.922  13.025   0.000  0.00  0.00    +0.029 A 
ATOM     17  C   UNL     1       6.221  13.775   0.000  0.00  0.00    +0.005 A 
ATOM     18  C   UNL     1       6.221  15.275   0.000  0.00  0.00    -0.050 A 
ATOM     19  C   UNL     1       7.520  16.025   0.000  0.00  0.00    +0.044 C 
ATOM     20  C   UNL     1       4.922  16.025   0.000  0.00  0.00    +0.005 A 
ATOM     21  C   UNL     1       3.623  15.275   0.000  0.00  0.00    +0.029 A 
ENDBRANCH  14  15
ENDBRANCH  12  14
TORSDOF 3