REMARK  Name = 534
REMARK  3 active torsions:
REMARK  status: ('A' for Active; 'I' for Inactive)
REMARK    1  A    between atoms: O_1  and  C_2
REMARK    2  A    between atoms: O_1  and  HG_3
REMARK    3  A    between atoms: C_2  and  C_4
REMARK                            x       y       z     vdW  Elec       q    Type
REMARK                         _______ _______ _______ _____ _____    ______ ____
ROOT
ATOM      1  C   UNL     1       5.811   2.049   0.000  0.00  0.00    +0.000 A 
ATOM      2  C   UNL     1       5.061   0.750   0.000  0.00  0.00    +0.000 A 
ATOM      3  C   UNL     1       3.562   0.750   0.000  0.00  0.00    +0.000 A 
ATOM      4  C   UNL     1       2.812   2.049   0.000  0.00  0.00    +0.000 A 
ATOM      5  C   UNL     1       3.562   3.348   0.000  0.00  0.00    +0.000 A 
ATOM      6  C   UNL     1       5.061   3.348   0.000  0.00  0.00    +0.000 A 
ATOM      7  C   UNL     1       5.811   4.647   0.000  0.00  0.00    +0.000 A 
ATOM      8  C   UNL     1       7.311   4.647   0.000  0.00  0.00    +0.000 A 
ATOM      9  C   UNL     1       8.062   3.348   0.000  0.00  0.00    +0.000 A 
ATOM     10  C   UNL     1       9.562   3.348   0.000  0.00  0.00    +0.000 A 
ATOM     11  C   UNL     1      10.312   2.049   0.000  0.00  0.00    +0.000 A 
ATOM     12  C   UNL     1       9.562   0.750   0.000  0.00  0.00    +0.000 A 
ATOM     13  C   UNL     1       8.062   0.750   0.000  0.00  0.00    +0.000 A 
ATOM     14  C   UNL     1       7.311   2.049   0.000  0.00  0.00    +0.000 A 
ENDROOT
TORSDOF 0