REMARK  Name = 4810
REMARK  4 active torsions:
REMARK  status: ('A' for Active; 'I' for Inactive)
REMARK    1  A    between atoms: C_13  and  N_19
REMARK    2  A    between atoms: C_15  and  N_23
REMARK    3  A    between atoms: C_16  and  N_20
REMARK    4  A    between atoms: N_18  and  N_19
REMARK                            x       y       z     vdW  Elec       q    Type
REMARK                         _______ _______ _______ _____ _____    ______ ____
ROOT
ATOM      6  N   UNL     1      -6.077   5.293   0.000  0.00  0.00    -0.231 N 
ATOM      7  H   UNL     1      -5.419   6.025   0.000  0.00  0.00    +0.175 HD
ENDROOT
BRANCH   6   5
ATOM      1  H   UNL     1      -7.545  10.885   0.000  0.00  0.00    +0.155 HD
ATOM      2  N   UNL     1      -8.008   9.459   0.000  0.00  0.00    -0.280 N 
ATOM      3  C   UNL     1      -7.126   8.245   0.000  0.00  0.00    +0.269 C 
ATOM      4  C   UNL     1      -8.008   7.032   0.000  0.00  0.00    +0.152 C 
ATOM      5  N   UNL     1      -7.545   5.605   0.000  0.00  0.00    -0.177 NA
ATOM     20  C   UNL     1      -9.435   7.495   0.000  0.00  0.00    +0.028 A 
ATOM     21  C   UNL     1     -10.734   6.745   0.000  0.00  0.00    +0.012 A 
ATOM     22  C   UNL     1     -12.033   7.495   0.000  0.00  0.00    +0.001 A 
ATOM     23  C   UNL     1     -12.033   8.995   0.000  0.00  0.00    +0.002 A 
ATOM     24  C   UNL     1     -10.734   9.745   0.000  0.00  0.00    +0.024 A 
ATOM     25  O   UNL     1      -5.626   8.245   0.000  0.00  0.00    -0.268 OA
ATOM     26  C   UNL     1      -9.435   8.995   0.000  0.00  0.00    +0.043 A 
ENDBRANCH   6   5
BRANCH   6   8
ATOM      8  C   UNL     1      -5.614   3.866   0.000  0.00  0.00    +0.126 A 
ATOM      9  C   UNL     1      -6.617   2.752   0.000  0.00  0.00    +0.302 A 
ATOM     13  C   UNL     1      -6.154   1.325   0.000  0.00  0.00    +0.170 A 
ATOM     14  C   UNL     1      -4.687   1.013   0.000  0.00  0.00    +0.280 A 
ATOM     18  C   UNL     1      -3.683   2.128   0.000  0.00  0.00    +0.086 A 
ATOM     19  C   UNL     1      -4.146   3.555   0.000  0.00  0.00    +0.038 A 
BRANCH   9  10
ATOM     10  N   UNL     1      -8.085   3.064   0.000  0.00  0.00    +0.082 N 
ATOM     11  O   UNL     1      -9.088   1.949   0.000  0.00  0.00    +0.042 OA
ATOM     12  O   UNL     1      -8.548   4.490   0.000  0.00  0.00    -0.576 OA
ENDBRANCH   9  10
BRANCH  14  15
ATOM     15  N   UNL     1      -4.223  -0.413   0.000  0.00  0.00    +0.080 N 
ATOM     16  O   UNL     1      -5.227  -1.528   0.000  0.00  0.00    +0.041 OA
ATOM     17  O   UNL     1      -2.756  -0.725   0.000  0.00  0.00    -0.576 OA
ENDBRANCH  14  15
ENDBRANCH   6   8
TORSDOF 4