REMARK  Name = 605583
REMARK  24 active torsions:
REMARK  status: ('A' for Active; 'I' for Inactive)
REMARK    1  A    between atoms: P_1  and  O_4
REMARK    2  A    between atoms: P_1  and  O_11
REMARK    3  A    between atoms: O_4  and  C_5
REMARK    4  A    between atoms: C_5  and  C_6
REMARK    5  A    between atoms: C_6  and  N_7
REMARK    6  A    between atoms: N_7  and  C_8
REMARK    7  A    between atoms: N_7  and  C_9
REMARK    8  A    between atoms: N_7  and  C_10
REMARK    9  A    between atoms: O_11  and  C_12
REMARK   10  A    between atoms: C_12  and  C_13
REMARK   11  A    between atoms: C_13  and  C_14
REMARK   12  A    between atoms: C_14  and  C_15
REMARK   13  A    between atoms: C_15  and  C_16
REMARK   14  A    between atoms: C_16  and  C_17
REMARK   15  A    between atoms: C_17  and  C_18
REMARK   16  A    between atoms: C_18  and  C_27
REMARK   17  A    between atoms: C_19  and  C_20
REMARK   18  A    between atoms: C_20  and  C_21
REMARK   19  A    between atoms: C_21  and  C_22
REMARK   20  A    between atoms: C_22  and  C_23
REMARK   21  A    between atoms: C_23  and  C_24
REMARK   22  A    between atoms: C_24  and  C_25
REMARK   23  A    between atoms: C_25  and  C_26
REMARK   24  A    between atoms: C_26  and  C_27
REMARK                            x       y       z     vdW  Elec       q    Type
REMARK                         _______ _______ _______ _____ _____    ______ ____
ROOT
ATOM      5  C   UNL     1      -2.184   1.197   0.000  0.00  0.00    +0.002 C 
ENDROOT
BRANCH   5   4
ATOM      4  C   UNL     1      -0.934   2.027   0.000  0.00  0.00    +0.028 C 
BRANCH   4   3
ATOM      3  C   UNL     1       0.273   1.137   0.000  0.00  0.00    +0.168 C 
BRANCH   3   2
ATOM      2  O   UNL     1       1.523   1.967   0.000  0.00  0.00    -0.327 OA
BRANCH   2   1
ATOM      1  P   UNL     1       2.866   1.300   0.000  0.00  0.00    +0.213 P 
ATOM     26  O   UNL     1       3.533   2.643   0.000  0.00  0.00    -0.437 OA
ATOM     27  O   UNL     1       2.199  -0.044   0.000  0.00  0.00    -0.517 OA
BRANCH   1  19
ATOM     19  O   UNL     1       4.209   0.633   0.000  0.00  0.00    -0.322 OA
BRANCH  19  20
ATOM     20  C   UNL     1       5.296   1.667   0.000  0.00  0.00    +0.218 C 
BRANCH  20  21
ATOM     21  C   UNL     1       6.735   1.243   0.000  0.00  0.00    +0.161 C 
BRANCH  21  22
ATOM     22  N   UNL     1       7.087  -0.215   0.000  0.00  0.00    +0.239 N 
ATOM     23  C   UNL     1       8.545   0.138   0.000  0.00  0.00    +0.192 C 
ATOM     24  C   UNL     1       7.440  -1.673   0.000  0.00  0.00    +0.192 C 
ATOM     25  C   UNL     1       5.629  -0.567   0.000  0.00  0.00    +0.192 C 
ENDBRANCH  21  22
ENDBRANCH  20  21
ENDBRANCH  19  20
ENDBRANCH   1  19
ENDBRANCH   2   1
ENDBRANCH   3   2
ENDBRANCH   4   3
ENDBRANCH   5   4
BRANCH   5   6
ATOM      6  C   UNL     1      -3.391   2.088   0.000  0.00  0.00    +0.000 C 
BRANCH   6   7
ATOM      7  C   UNL     1      -4.766   1.487   0.000  0.00  0.00    +0.000 C 
BRANCH   7   8
ATOM      8  C   UNL     1      -4.933  -0.003   0.000  0.00  0.00    +0.000 C 
BRANCH   8   9
ATOM      9  C   UNL     1      -3.726  -0.894   0.000  0.00  0.00    -0.000 C 
BRANCH   9  10
ATOM     10  C   UNL     1      -2.351  -0.293   0.000  0.00  0.00    -0.000 C 
BRANCH  10  11
ATOM     11  C   UNL     1      -1.144  -1.184   0.000  0.00  0.00    -0.000 C 
BRANCH  11  12
ATOM     12  C   UNL     1      -1.311  -2.674   0.000  0.00  0.00    -0.000 C 
BRANCH  12  13
ATOM     13  C   UNL     1      -2.686  -3.275   0.000  0.00  0.00    -0.000 C 
BRANCH  13  14
ATOM     14  C   UNL     1      -3.720  -2.188   0.000  0.00  0.00    -0.000 C 
BRANCH  14  15
ATOM     15  C   UNL     1      -5.095  -2.788   0.000  0.00  0.00    -0.000 C 
BRANCH  15  16
ATOM     16  C   UNL     1      -6.302  -1.898   0.000  0.00  0.00    -0.000 C 
BRANCH  16  17
ATOM     17  C   UNL     1      -5.878  -0.459   0.000  0.00  0.00    -0.003 C 
ATOM     18  C   UNL     1      -6.913   0.627   0.000  0.00  0.00    +0.004 C 
ENDBRANCH  16  17
ENDBRANCH  15  16
ENDBRANCH  14  15
ENDBRANCH  13  14
ENDBRANCH  12  13
ENDBRANCH  11  12
ENDBRANCH  10  11
ENDBRANCH   9  10
ENDBRANCH   8   9
ENDBRANCH   7   8
ENDBRANCH   6   7
ENDBRANCH   5   6
TORSDOF 20