REMARK  Name = 5354
REMARK  2 active torsions:
REMARK  status: ('A' for Active; 'I' for Inactive)
REMARK    1  A    between atoms: C_1  and  N_7
REMARK    2  A    between atoms: C_3  and  N_8
REMARK                            x       y       z     vdW  Elec       q    Type
REMARK                         _______ _______ _______ _____ _____    ______ ____
ROOT
ATOM      1  C   UNL     1       0.252  -2.563   0.000  0.00  0.00    +0.045 A 
ATOM      5  C   UNL     1      -1.047  -3.313   0.000  0.00  0.00    +0.024 A 
ATOM      6  C   UNL     1      -1.047  -4.813   0.000  0.00  0.00    +0.002 A 
ATOM      7  C   UNL     1       0.252  -5.563   0.000  0.00  0.00    +0.002 A 
ATOM      8  C   UNL     1       1.551  -4.813   0.000  0.00  0.00    +0.024 A 
ATOM      9  C   UNL     1       1.551  -3.313   0.000  0.00  0.00    +0.045 A 
ENDROOT
BRANCH   1   2
ATOM      2  N   UNL     1       0.252  -1.063   0.000  0.00  0.00    -0.357 N 
ATOM      3  H   UNL     1      -0.600  -0.571   0.000  0.00  0.00    +0.142 HD
ATOM      4  H   UNL     1       1.105  -0.571   0.000  0.00  0.00    +0.142 HD
ENDBRANCH   1   2
BRANCH   9  10
ATOM     10  N   UNL     1       2.850  -2.563   0.000  0.00  0.00    -0.357 N 
ATOM     11  H   UNL     1       2.850  -1.579   0.000  0.00  0.00    +0.142 HD
ATOM     12  H   UNL     1       3.703  -3.055   0.000  0.00  0.00    +0.142 HD
ENDBRANCH   9  10
TORSDOF 2