REMARK  Name = 607316
REMARK  24 active torsions:
REMARK  status: ('A' for Active; 'I' for Inactive)
REMARK    1  A    between atoms: N_13  and  C_21
REMARK    2  A    between atoms: N_18  and  C_26
REMARK    3  A    between atoms: C_21  and  O_22
REMARK    4  A    between atoms: O_22  and  C_57
REMARK    5  A    between atoms: C_23  and  N_24
REMARK    6  A    between atoms: C_23  and  C_25
REMARK    7  A    between atoms: C_23  and  C_57
REMARK    8  A    between atoms: C_25  and  C_44
REMARK    9  A    between atoms: C_26  and  O_27
REMARK   10  A    between atoms: O_27  and  C_59
REMARK   11  A    between atoms: C_28  and  N_29
REMARK   12  A    between atoms: C_28  and  C_30
REMARK   13  A    between atoms: C_28  and  C_59
REMARK   14  A    between atoms: C_30  and  C_41
REMARK   15  A    between atoms: C_31  and  O_33
REMARK   16  A    between atoms: O_33  and  C_34
REMARK   17  A    between atoms: C_34  and  C_35
REMARK   18  A    between atoms: C_34  and  C_36
REMARK   19  A    between atoms: C_34  and  C_37
REMARK   20  A    between atoms: C_50  and  O_52
REMARK   21  A    between atoms: O_52  and  C_53
REMARK   22  A    between atoms: C_53  and  C_54
REMARK   23  A    between atoms: C_53  and  C_55
REMARK   24  A    between atoms: C_53  and  C_56
REMARK                            x       y       z     vdW  Elec       q    Type
REMARK                         _______ _______ _______ _____ _____    ______ ____
ROOT
ATOM      1  C   UNL     1      12.693   1.270   0.000  0.00  0.00    +0.028 C 
ATOM      2  C   UNL     1      11.742   0.721   0.000  0.00  0.00    -0.026 C 
ATOM      3  C   UNL     1      11.193  -0.230   0.000  0.00  0.00    -0.026 C 
ATOM      4  C   UNL     1      11.193  -1.328   0.000  0.00  0.00    +0.028 C 
ATOM      5  C   UNL     1      12.693  -1.328   0.000  0.00  0.00    +0.014 C 
ATOM      6  C   UNL     1      13.992  -2.078   0.000  0.00  0.00    +0.092 C 
ATOM      7  C   UNL     1      14.996  -3.193   0.000  0.00  0.00    +0.228 C 
ATOM      8  N   UNL     1      16.366  -2.583   0.000  0.00  0.00    -0.207 N 
ATOM     30  C   UNL     1      16.209  -1.091   0.000  0.00  0.00    +0.228 C 
ATOM     31  O   UNL     1      17.324  -0.087   0.000  0.00  0.00    -0.275 OA
ATOM     32  O   UNL     1      14.684  -4.660   0.000  0.00  0.00    -0.275 OA
ATOM     33  C   UNL     1      14.742  -0.779   0.000  0.00  0.00    +0.092 C 
ATOM     34  C   UNL     1      10.443  -0.029   0.000  0.00  0.00    +0.095 C 
ATOM     35  C   UNL     1       8.976   0.283   0.000  0.00  0.00    +0.229 C 
ATOM     36  O   UNL     1       7.861  -0.721   0.000  0.00  0.00    -0.275 OA
ATOM     37  N   UNL     1       8.819   1.775   0.000  0.00  0.00    -0.207 N 
ATOM     59  C   UNL     1      10.189   2.385   0.000  0.00  0.00    +0.229 C 
ATOM     60  O   UNL     1      10.501   3.852   0.000  0.00  0.00    -0.275 OA
ATOM     61  C   UNL     1      13.443  -0.029   0.000  0.00  0.00    +0.014 C 
ATOM     62  C   UNL     1      11.193   1.270   0.000  0.00  0.00    +0.095 C 
ENDROOT
BRANCH   8   9
ATOM      9  C   UNL     1      17.665  -3.333   0.000  0.00  0.00    +0.352 C 
BRANCH   9  10
ATOM     10  O   UNL     1      17.665  -4.833   0.000  0.00  0.00    -0.443 OA
BRANCH  10  11
ATOM     11  C   UNL     1      18.964  -5.583   0.000  0.00  0.00    +0.330 C 
ATOM     12  O   UNL     1      20.263  -4.833   0.000  0.00  0.00    -0.249 OA
BRANCH  11  13
ATOM     13  C   UNL     1      18.964  -7.083   0.000  0.00  0.00    +0.189 C 
BRANCH  13  21
ATOM     21  N   UNL     1      17.665  -7.833   0.000  0.00  0.00    -0.268 N 
ATOM     22  H   UNL     1      16.773  -7.417   0.000  0.00  0.00    +0.153 HD
ATOM     23  C   UNL     1      17.925  -9.310   0.000  0.00  0.00    +0.401 C 
ATOM     29  O   UNL     1      19.335  -9.823   0.000  0.00  0.00    -0.226 OA
BRANCH  23  24
ATOM     24  O   UNL     1      16.776 -10.274   0.000  0.00  0.00    -0.445 OA
BRANCH  24  25
ATOM     25  C   UNL     1      15.367  -9.761   0.000  0.00  0.00    +0.107 C 
ATOM     26  C   UNL     1      15.880  -8.352   0.000  0.00  0.00    +0.055 C 
ATOM     27  C   UNL     1      13.957  -9.248   0.000  0.00  0.00    +0.055 C 
ATOM     28  C   UNL     1      14.854 -11.171   0.000  0.00  0.00    +0.055 C 
ENDBRANCH  24  25
ENDBRANCH  23  24
ENDBRANCH  13  21
BRANCH  13  14
ATOM     14  C   UNL     1      20.263  -7.833   0.000  0.00  0.00    +0.069 C 
BRANCH  14  15
ATOM     15  C   UNL     1      21.562  -7.083   0.000  0.00  0.00    -0.045 A 
ATOM     16  C   UNL     1      22.861  -7.833   0.000  0.00  0.00    +0.004 A 
ATOM     17  C   UNL     1      24.160  -7.083   0.000  0.00  0.00    +0.000 A 
ATOM     18  C   UNL     1      24.160  -5.583   0.000  0.00  0.00    +0.000 A 
ATOM     19  C   UNL     1      22.861  -4.833   0.000  0.00  0.00    +0.000 A 
ATOM     20  C   UNL     1      21.562  -5.583   0.000  0.00  0.00    +0.004 A 
ENDBRANCH  14  15
ENDBRANCH  13  14
ENDBRANCH  11  13
ENDBRANCH  10  11
ENDBRANCH   9  10
ENDBRANCH   8   9
BRANCH  37  38
ATOM     38  C   UNL     1       7.520   2.525   0.000  0.00  0.00    +0.352 C 
BRANCH  38  39
ATOM     39  O   UNL     1       7.780   4.002   0.000  0.00  0.00    -0.443 OA
BRANCH  39  40
ATOM     40  C   UNL     1       6.631   4.966   0.000  0.00  0.00    +0.330 C 
ATOM     41  O   UNL     1       5.222   4.453   0.000  0.00  0.00    -0.249 OA
BRANCH  40  42
ATOM     42  C   UNL     1       6.892   6.443   0.000  0.00  0.00    +0.189 C 
BRANCH  42  50
ATOM     50  N   UNL     1       8.301   6.956   0.000  0.00  0.00    -0.268 N 
ATOM     51  H   UNL     1       9.108   6.392   0.000  0.00  0.00    +0.153 HD
ATOM     52  C   UNL     1       8.301   8.456   0.000  0.00  0.00    +0.401 C 
ATOM     58  O   UNL     1       7.002   9.206   0.000  0.00  0.00    -0.226 OA
BRANCH  52  53
ATOM     53  O   UNL     1       9.600   9.206   0.000  0.00  0.00    -0.445 OA
BRANCH  53  54
ATOM     54  C   UNL     1      10.899   8.456   0.000  0.00  0.00    +0.107 C 
ATOM     55  C   UNL     1      11.649   9.755   0.000  0.00  0.00    +0.055 C 
ATOM     56  C   UNL     1      12.198   7.706   0.000  0.00  0.00    +0.055 C 
ATOM     57  C   UNL     1      10.149   7.157   0.000  0.00  0.00    +0.055 C 
ENDBRANCH  53  54
ENDBRANCH  52  53
ENDBRANCH  42  50
BRANCH  42  43
ATOM     43  C   UNL     1       5.742   7.407   0.000  0.00  0.00    +0.069 C 
BRANCH  43  44
ATOM     44  C   UNL     1       4.333   6.894   0.000  0.00  0.00    -0.045 A 
ATOM     45  C   UNL     1       3.184   7.859   0.000  0.00  0.00    +0.004 A 
ATOM     46  C   UNL     1       1.774   7.345   0.000  0.00  0.00    +0.000 A 
ATOM     47  C   UNL     1       1.514   5.868   0.000  0.00  0.00    +0.000 A 
ATOM     48  C   UNL     1       2.663   4.904   0.000  0.00  0.00    +0.000 A 
ATOM     49  C   UNL     1       4.072   5.417   0.000  0.00  0.00    +0.004 A 
ENDBRANCH  43  44
ENDBRANCH  42  43
ENDBRANCH  40  42
ENDBRANCH  39  40
ENDBRANCH  38  39
ENDBRANCH  37  38
TORSDOF 18