REMARK  Name = 201631
REMARK  11 active torsions:
REMARK  status: ('A' for Active; 'I' for Inactive)
REMARK    1  A    between atoms: C_4  and  C_27
REMARK    2  A    between atoms: C_7  and  N_29
REMARK    3  A    between atoms: C_10  and  N_23
REMARK    4  A    between atoms: C_12  and  C_21
REMARK    5  A    between atoms: C_14  and  N_23
REMARK    6  A    between atoms: C_15  and  C_24
REMARK    7  A    between atoms: C_16  and  N_26
REMARK    8  A    between atoms: C_17  and  C_27
REMARK    9  A    between atoms: C_18  and  C_19
REMARK   10  A    between atoms: C_18  and  O_20
REMARK   11  A    between atoms: O_20  and  C_21
REMARK                            x       y       z     vdW  Elec       q    Type
REMARK                         _______ _______ _______ _____ _____    ______ ____
ROOT
ATOM      1  S   UNL     1      10.472   0.825   0.000  0.00  0.00    -0.067 S 
ATOM      2  C   UNL     1      11.843   0.215   0.000  0.00  0.00    +0.083 A 
ATOM     14  C   UNL     1      11.686  -1.277   0.000  0.00  0.00    +0.062 A 
ATOM     18  C   UNL     1      10.219  -1.589   0.000  0.00  0.00    +0.101 A 
ATOM     21  C   UNL     1       9.469  -0.289   0.000  0.00  0.00    +0.090 A 
ENDROOT
BRANCH  14  15
ATOM     15  N   UNL     1      12.801  -2.280   0.000  0.00  0.00    -0.356 N 
ATOM     16  H   UNL     1      13.737  -1.976   0.000  0.00  0.00    +0.142 HD
ATOM     17  H   UNL     1      12.596  -3.243   0.000  0.00  0.00    +0.142 HD
ENDBRANCH  14  15
BRANCH   2   3
ATOM      3  C   UNL     1      13.142   0.965   0.000  0.00  0.00    +0.202 C 
ATOM      4  O   UNL     1      13.142   2.465   0.000  0.00  0.00    -0.286 OA
BRANCH   3   5
ATOM      5  C   UNL     1      14.441   0.215   0.000  0.00  0.00    +0.029 A 
ATOM      6  C   UNL     1      14.441  -1.285   0.000  0.00  0.00    +0.096 A 
ATOM      7  C   UNL     1      15.740  -2.035   0.000  0.00  0.00    +0.274 A 
ATOM     11  C   UNL     1      17.039  -1.285   0.000  0.00  0.00    +0.084 A 
ATOM     12  C   UNL     1      17.039   0.215   0.000  0.00  0.00    +0.007 A 
ATOM     13  C   UNL     1      15.740   0.965   0.000  0.00  0.00    +0.012 A 
BRANCH   7   8
ATOM      8  N   UNL     1      15.740  -3.535   0.000  0.00  0.00    +0.080 N 
ATOM      9  O   UNL     1      17.039  -4.285   0.000  0.00  0.00    +0.041 OA
ATOM     10  O   UNL     1      14.441  -4.285   0.000  0.00  0.00    -0.576 OA
ENDBRANCH   7   8
ENDBRANCH   3   5
ENDBRANCH   2   3
BRANCH  18  19
ATOM     19  C   UNL     1       9.608  -2.959   0.000  0.00  0.00    +0.103 C 
ATOM     20  N   UNL     1       8.998  -4.329   0.000  0.00  0.00    -0.191 NA
ENDBRANCH  18  19
BRANCH  21  22
ATOM     22  N   UNL     1       7.977  -0.133   0.000  0.00  0.00    -0.308 N 
ATOM     23  H   UNL     1       7.398  -0.929   0.000  0.00  0.00    +0.153 HD
BRANCH  22  24
ATOM     24  C   UNL     1       7.367   1.238   0.000  0.00  0.00    +0.032 A 
ATOM     25  C   UNL     1       5.875   1.394   0.000  0.00  0.00    +0.024 A 
ATOM     26  C   UNL     1       5.265   2.765   0.000  0.00  0.00    +0.017 A 
ATOM     27  C   UNL     1       6.146   3.978   0.000  0.00  0.00    +0.059 A 
ATOM     33  C   UNL     1       7.638   3.821   0.000  0.00  0.00    +0.017 A 
ATOM     34  C   UNL     1       8.248   2.451   0.000  0.00  0.00    +0.024 A 
BRANCH  27  28
ATOM     28  C   UNL     1       5.536   5.349   0.000  0.00  0.00    +0.339 C 
ATOM     29  O   UNL     1       4.045   5.505   0.000  0.00  0.00    -0.245 OA
BRANCH  28  30
ATOM     30  O   UNL     1       6.418   6.562   0.000  0.00  0.00    -0.461 OA
BRANCH  30  31
ATOM     31  C   UNL     1       5.808   7.932   0.000  0.00  0.00    +0.229 C 
ATOM     32  C   UNL     1       6.689   9.146   0.000  0.00  0.00    +0.048 C 
ENDBRANCH  30  31
ENDBRANCH  28  30
ENDBRANCH  27  28
ENDBRANCH  22  24
ENDBRANCH  21  22
TORSDOF 10