REMARK  Name = 195327
REMARK  6 active torsions:
REMARK  status: ('A' for Active; 'I' for Inactive)
REMARK    1  A    between atoms: N_1  and  N_17
REMARK    2  A    between atoms: C_4  and  C_18
REMARK    3  A    between atoms: C_5  and  C_7
REMARK    4  A    between atoms: C_13  and  N_19
REMARK    5  A    between atoms: N_14  and  C_15
REMARK    6  A    between atoms: C_15  and  N_17
REMARK                            x       y       z     vdW  Elec       q    Type
REMARK                         _______ _______ _______ _____ _____    ______ ____
ROOT
ATOM      3  C   UNL     1       5.571  -3.650   0.000  0.00  0.00    +0.084 A 
ATOM      4  C   UNL     1       6.870  -4.399   0.000  0.00  0.00    +0.038 A 
ATOM      5  C   UNL     1       6.870  -5.899   0.000  0.00  0.00    -0.014 A 
ATOM     15  C   UNL     1       5.571  -6.649   0.000  0.00  0.00    +0.028 A 
ATOM     16  C   UNL     1       4.272  -5.899   0.000  0.00  0.00    +0.112 A 
ATOM     17  N   UNL     1       4.272  -4.399   0.000  0.00  0.00    -0.254 NA
ENDROOT
BRANCH   5   6
ATOM      6  C   UNL     1       8.169  -6.649   0.000  0.00  0.00    -0.016 A 
ATOM      7  C   UNL     1       9.468  -5.899   0.000  0.00  0.00    +0.008 A 
ATOM      8  C   UNL     1      10.767  -6.649   0.000  0.00  0.00    +0.002 A 
ATOM      9  C   UNL     1      10.767  -8.149   0.000  0.00  0.00    +0.023 A 
ATOM     10  C   UNL     1       9.468  -8.899   0.000  0.00  0.00    +0.025 A 
ATOM     14  C   UNL     1       8.169  -8.149   0.000  0.00  0.00    +0.031 A 
BRANCH  10  11
ATOM     11  N   UNL     1       9.468 -10.400   0.000  0.00  0.00    -0.358 N 
ATOM     12  H   UNL     1      10.321 -10.892   0.000  0.00  0.00    +0.142 HD
ATOM     13  H   UNL     1       8.616 -10.892   0.000  0.00  0.00    +0.142 HD
ENDBRANCH  10  11
ENDBRANCH   5   6
BRANCH   3   2
ATOM      1  N   UNL     1       4.272  -1.400   0.000  0.00  0.00    -0.187 NA
ATOM      2  C   UNL     1       5.571  -2.150   0.000  0.00  0.00    +0.158 C 
BRANCH   1  18
ATOM     18  N   UNL     1       4.272   0.101   0.000  0.00  0.00    -0.219 N 
ATOM     19  H   UNL     1       3.420   0.593   0.000  0.00  0.00    +0.176 HD
BRANCH  18  20
ATOM     20  C   UNL     1       5.571   0.851   0.000  0.00  0.00    +0.147 C 
ATOM     21  S   UNL     1       6.870   0.101   0.000  0.00  0.00    -0.017 S 
BRANCH  20  22
ATOM     22  N   UNL     1       5.571   2.350   0.000  0.00  0.00    -0.339 N 
ATOM     23  H   UNL     1       4.719   2.843   0.000  0.00  0.00    +0.144 HD
ATOM     24  H   UNL     1       6.424   2.843   0.000  0.00  0.00    +0.144 HD
ENDBRANCH  20  22
ENDBRANCH  18  20
ENDBRANCH   1  18
ENDBRANCH   3   2
TORSDOF 6