REMARK  Name = 200686
REMARK  5 active torsions:
REMARK  status: ('A' for Active; 'I' for Inactive)
REMARK    1  A    between atoms: N_2  and  C_7
REMARK    2  A    between atoms: C_5  and  C_6
REMARK    3  A    between atoms: C_7  and  C_8
REMARK    4  A    between atoms: C_8  and  C_9
REMARK    5  A    between atoms: C_9  and  C_10
REMARK                            x       y       z     vdW  Elec       q    Type
REMARK                         _______ _______ _______ _____ _____    ______ ____
ROOT
ATOM      1  N   UNL     1       1.913   0.607   0.000  0.00  0.00    -0.241 NA
ATOM      2  C   UNL     1       1.449   2.033   0.000  0.00  0.00    +0.130 A 
ATOM      3  C   UNL     1       2.663   2.915   0.000  0.00  0.00    +0.107 A 
ATOM      4  N   UNL     1       3.876   2.033   0.000  0.00  0.00    -0.335 N 
ATOM      9  C   UNL     1       3.413   0.607   0.000  0.00  0.00    +0.106 A 
ATOM     10  C   UNL     1       4.295  -0.607   0.000  0.00  0.00    +0.086 C 
ENDROOT
BRANCH   4   5
ATOM      5  C   UNL     1       5.303   2.497   0.000  0.00  0.00    +0.123 C 
BRANCH   5   6
ATOM      6  C   UNL     1       6.418   1.493   0.000  0.00  0.00    +0.021 C 
BRANCH   6   7
ATOM      7  C   UNL     1       7.844   1.957   0.000  0.00  0.00    -0.002 C 
ATOM      8  C   UNL     1       8.959   0.953   0.000  0.00  0.00    +0.004 C 
ENDBRANCH   6   7
ENDBRANCH   5   6
ENDBRANCH   4   5
TORSDOF 3