REMARK  Name = 19962
REMARK  8 active torsions:
REMARK  status: ('A' for Active; 'I' for Inactive)
REMARK    1  A    between atoms: C_1  and  C_17
REMARK    2  A    between atoms: C_2  and  C_4
REMARK    3  A    between atoms: C_3  and  C_16
REMARK    4  A    between atoms: C_7  and  O_19
REMARK    5  A    between atoms: C_10  and  C_13
REMARK    6  A    between atoms: C_13  and  O_15
REMARK    7  A    between atoms: C_17  and  C_18
REMARK    8  A    between atoms: O_19  and  C_20
REMARK                            x       y       z     vdW  Elec       q    Type
REMARK                         _______ _______ _______ _____ _____    ______ ____
ROOT
ATOM      1  C   UNL     1      -5.471  -7.024   0.000  0.00  0.00    -0.062 C 
ATOM      4  C   UNL     1      -6.770  -7.774   0.000  0.00  0.00    +0.026 C 
ATOM      5  C   UNL     1      -8.069  -7.024   0.000  0.00  0.00    +0.013 C 
ATOM      6  C   UNL     1      -6.770  -9.274   0.000  0.00  0.00    +0.105 C 
ATOM     11  C   UNL     1      -5.471 -10.025   0.000  0.00  0.00    +0.020 C 
ATOM     12  C   UNL     1      -4.172  -9.274   0.000  0.00  0.00    +0.036 C 
ATOM     13  C   UNL     1      -4.172  -7.774   0.000  0.00  0.00    -0.041 C 
ENDROOT
BRANCH  13  14
ATOM     14  C   UNL     1      -2.873  -7.024   0.000  0.00  0.00    -0.022 A 
ATOM     15  C   UNL     1      -2.873  -5.524   0.000  0.00  0.00    +0.012 A 
ATOM     16  C   UNL     1      -1.574  -4.774   0.000  0.00  0.00    +0.046 A 
ATOM     17  C   UNL     1      -0.275  -5.524   0.000  0.00  0.00    +0.120 A 
ATOM     20  C   UNL     1      -0.275  -7.024   0.000  0.00  0.00    +0.046 A 
ATOM     21  C   UNL     1      -1.574  -7.774   0.000  0.00  0.00    +0.012 A 
BRANCH  17  18
ATOM     18  O   UNL     1       1.025  -4.774   0.000  0.00  0.00    -0.495 OA
ATOM     19  C   UNL     1       1.025  -3.275   0.000  0.00  0.00    +0.277 C 
ENDBRANCH  17  18
ENDBRANCH  13  14
BRANCH   1   2
ATOM      2  C   UNL     1      -5.471  -5.524   0.000  0.00  0.00    +0.028 C 
ATOM      3  C   UNL     1      -6.770  -4.774   0.000  0.00  0.00    +0.008 C 
ENDBRANCH   1   2
BRANCH   6   7
ATOM      7  C   UNL     1      -8.069 -10.025   0.000  0.00  0.00    +0.308 C 
ATOM     10  O   UNL     1      -9.368  -9.274   0.000  0.00  0.00    -0.251 OA
BRANCH   7   8
ATOM      8  O   UNL     1      -8.069 -11.525   0.000  0.00  0.00    -0.480 OA
ATOM      9  H   UNL     1      -8.880 -11.993   0.000  0.00  0.00    +0.295 HD
ENDBRANCH   7   8
ENDBRANCH   6   7
TORSDOF 5