REMARK  Name = 195031
REMARK  10 active torsions:
REMARK  status: ('A' for Active; 'I' for Inactive)
REMARK    1  A    between atoms: C_1  and  C_2
REMARK    2  A    between atoms: C_2  and  C_3
REMARK    3  A    between atoms: C_3  and  C_4
REMARK    4  A    between atoms: C_4  and  C_5
REMARK    5  A    between atoms: N_7  and  C_8
REMARK    6  A    between atoms: N_7  and  C_11
REMARK    7  A    between atoms: C_8  and  C_9
REMARK    8  A    between atoms: C_9  and  C_10
REMARK    9  A    between atoms: C_11  and  C_12
REMARK   10  A    between atoms: C_12  and  C_13
REMARK                            x       y       z     vdW  Elec       q    Type
REMARK                         _______ _______ _______ _____ _____    ______ ____
ROOT
ATOM      5  C   UNL     1      -5.899   1.674   0.000  0.00  0.00    +0.216 C 
ATOM      6  N   UNL     1      -6.649   0.375   0.000  0.00  0.00    -0.301 N 
ATOM     13  O   UNL     1      -6.649   2.973   0.000  0.00  0.00    -0.276 OA
ENDROOT
BRANCH   5   4
ATOM      4  C   UNL     1      -4.399   1.674   0.000  0.00  0.00    +0.096 C 
BRANCH   4   3
ATOM      3  C   UNL     1      -3.650   0.375   0.000  0.00  0.00    +0.009 C 
BRANCH   3   2
ATOM      1  C   UNL     1      -1.400  -0.924   0.000  0.00  0.00    +0.004 C 
ATOM      2  C   UNL     1      -2.150   0.375   0.000  0.00  0.00    -0.003 C 
ENDBRANCH   3   2
ENDBRANCH   4   3
ENDBRANCH   5   4
BRANCH   6   7
ATOM      7  C   UNL     1      -5.899  -0.924   0.000  0.00  0.00    +0.107 C 
BRANCH   7   8
ATOM      8  C   UNL     1      -4.399  -0.924   0.000  0.00  0.00    +0.016 C 
ATOM      9  C   UNL     1      -3.650  -2.223   0.000  0.00  0.00    +0.005 C 
ENDBRANCH   7   8
ENDBRANCH   6   7
BRANCH   6  10
ATOM     10  C   UNL     1      -8.149   0.375   0.000  0.00  0.00    +0.107 C 
BRANCH  10  11
ATOM     11  C   UNL     1      -8.899   1.674   0.000  0.00  0.00    +0.016 C 
ATOM     12  C   UNL     1     -10.400   1.674   0.000  0.00  0.00    +0.005 C 
ENDBRANCH  10  11
ENDBRANCH   6  10
TORSDOF 7