REMARK  Name = 19970
REMARK  12 active torsions:
REMARK  status: ('A' for Active; 'I' for Inactive)
REMARK    1  A    between atoms: C_15  and  O_26
REMARK    2  A    between atoms: C_23  and  O_34
REMARK    3  A    between atoms: C_24  and  C_28
REMARK    4  A    between atoms: C_25  and  O_32
REMARK    5  A    between atoms: O_26  and  C_27
REMARK    6  A    between atoms: C_28  and  O_30
REMARK    7  A    between atoms: O_30  and  C_31
REMARK    8  A    between atoms: O_32  and  C_33
REMARK    9  A    between atoms: O_34  and  C_35
REMARK   10  A    between atoms: C_35  and  C_37
REMARK   11  A    between atoms: C_37  and  C_38
REMARK   12  A    between atoms: C_38  and  C_40
REMARK                            x       y       z     vdW  Elec       q    Type
REMARK                         _______ _______ _______ _____ _____    ______ ____
ROOT
ATOM      1  N   UNL     1     -11.720  -5.719   0.000  0.00  0.00    -0.356 N 
ATOM      2  H   UNL     1     -11.257  -7.146   0.000  0.00  0.00    +0.166 HD
ATOM      3  C   UNL     1     -13.147  -5.256   0.000  0.00  0.00    +0.050 A 
ATOM      4  C   UNL     1     -14.446  -6.006   0.000  0.00  0.00    +0.071 A 
ATOM      5  C   UNL     1     -15.745  -5.256   0.000  0.00  0.00    +0.122 A 
ATOM      8  C   UNL     1     -15.745  -3.756   0.000  0.00  0.00    +0.046 A 
ATOM      9  C   UNL     1     -14.446  -3.006   0.000  0.00  0.00    +0.014 A 
ATOM     10  C   UNL     1     -13.147  -3.756   0.000  0.00  0.00    +0.003 A 
ATOM     11  C   UNL     1     -11.720  -3.292   0.000  0.00  0.00    -0.016 A 
ATOM     12  C   UNL     1     -11.110  -1.922   0.000  0.00  0.00    +0.053 C 
ATOM     13  C   UNL     1      -9.618  -1.765   0.000  0.00  0.00    +0.090 C 
ATOM     14  N   UNL     1      -8.736  -2.979   0.000  0.00  0.00    -0.293 NA
ATOM     15  C   UNL     1      -7.245  -2.822   0.000  0.00  0.00    +0.089 C 
ATOM     16  C   UNL     1      -6.363  -4.035   0.000  0.00  0.00    +0.011 C 
ATOM     17  C   UNL     1      -4.871  -3.879   0.000  0.00  0.00    +0.052 C 
ATOM     18  C   UNL     1      -3.990  -5.092   0.000  0.00  0.00    +0.206 C 
ATOM     26  C   UNL     1      -4.600  -6.462   0.000  0.00  0.00    +0.172 C 
ATOM     29  C   UNL     1      -6.091  -6.619   0.000  0.00  0.00    +0.133 C 
ATOM     34  C   UNL     1      -6.973  -5.406   0.000  0.00  0.00    +0.012 C 
ATOM     35  C   UNL     1      -8.465  -5.563   0.000  0.00  0.00    +0.030 C 
ATOM     36  C   UNL     1      -9.347  -4.349   0.000  0.00  0.00    +0.104 C 
ATOM     37  C   UNL     1     -10.838  -4.506   0.000  0.00  0.00    +0.038 A 
ENDROOT
BRANCH   5   6
ATOM      6  O   UNL     1     -17.044  -6.006   0.000  0.00  0.00    -0.495 OA
ATOM      7  C   UNL     1     -18.343  -5.256   0.000  0.00  0.00    +0.277 C 
ENDBRANCH   5   6
BRANCH  26  27
ATOM     27  O   UNL     1      -3.718  -7.676   0.000  0.00  0.00    -0.375 OA
ATOM     28  C   UNL     1      -2.226  -7.519   0.000  0.00  0.00    +0.194 C 
ENDBRANCH  26  27
BRANCH  29  30
ATOM     30  C   UNL     1      -6.702  -7.989   0.000  0.00  0.00    +0.313 C 
ATOM     33  O   UNL     1      -8.193  -8.146   0.000  0.00  0.00    -0.250 OA
BRANCH  30  31
ATOM     31  O   UNL     1      -5.820  -9.203   0.000  0.00  0.00    -0.468 OA
ATOM     32  C   UNL     1      -4.328  -9.046   0.000  0.00  0.00    +0.280 C 
ENDBRANCH  30  31
ENDBRANCH  29  30
BRANCH  18  19
ATOM     19  O   UNL     1      -2.498  -4.935   0.000  0.00  0.00    -0.458 OA
BRANCH  19  20
ATOM     20  C   UNL     1      -2.135  -3.480   0.000  0.00  0.00    +0.315 C 
ATOM     25  O   UNL     1      -3.214  -2.438   0.000  0.00  0.00    -0.250 OA
BRANCH  20  21
ATOM     21  C   UNL     1      -0.693  -3.066   0.000  0.00  0.00    +0.194 C 
BRANCH  21  22
ATOM     22  C   UNL     1       0.386  -4.108   0.000  0.00  0.00    +0.141 C 
ATOM     23  C   UNL     1       0.023  -5.564   0.000  0.00  0.00    +0.086 C 
ATOM     24  O   UNL     1       1.828  -3.695   0.000  0.00  0.00    -0.297 OA
ENDBRANCH  21  22
ENDBRANCH  20  21
ENDBRANCH  19  20
ENDBRANCH  18  19
TORSDOF 8