REMARK  Name = 201989
REMARK  6 active torsions:
REMARK  status: ('A' for Active; 'I' for Inactive)
REMARK    1  A    between atoms: C_8  and  C_23
REMARK    2  A    between atoms: C_9  and  C_20
REMARK    3  A    between atoms: N_16  and  C_21
REMARK    4  A    between atoms: N_18  and  C_22
REMARK    5  A    between atoms: C_20  and  C_21
REMARK    6  A    between atoms: C_22  and  C_23
REMARK                            x       y       z     vdW  Elec       q    Type
REMARK                         _______ _______ _______ _____ _____    ______ ____
ROOT
ATOM      8  N   UNL     1      -1.500   7.245   0.000  0.00  0.00    -0.306 N 
ATOM      9  C   UNL     1      -0.750   5.946   0.000  0.00  0.00    +0.194 C 
ATOM     10  N   UNL     1      -1.500   4.647   0.000  0.00  0.00    -0.277 NA
ATOM     19  C   UNL     1      -3.000   4.647   0.000  0.00  0.00    +0.162 C 
ATOM     20  S   UNL     1      -3.750   5.946   0.000  0.00  0.00    -0.087 S 
ATOM     21  C   UNL     1      -3.000   7.245   0.000  0.00  0.00    +0.111 C 
ATOM     22  S   UNL     1      -3.750   8.544   0.000  0.00  0.00    -0.028 S 
ENDROOT
BRANCH   8   7
ATOM      7  C   UNL     1      -0.750   8.544   0.000  0.00  0.00    +0.112 C 
BRANCH   7   6
ATOM      6  C   UNL     1       0.750   8.544   0.000  0.00  0.00    +0.054 C 
BRANCH   6   5
ATOM      1  C   UNL     1       1.500   4.647   0.000  0.00  0.00    +0.000 A 
ATOM      2  C   UNL     1       3.000   4.647   0.000  0.00  0.00    +0.000 A 
ATOM      3  C   UNL     1       3.750   5.946   0.000  0.00  0.00    +0.000 A 
ATOM      4  C   UNL     1       3.000   7.245   0.000  0.00  0.00    +0.004 A 
ATOM      5  C   UNL     1       1.500   7.245   0.000  0.00  0.00    -0.046 A 
ATOM     23  C   UNL     1       0.750   5.946   0.000  0.00  0.00    +0.004 A 
ENDBRANCH   6   5
ENDBRANCH   7   6
ENDBRANCH   8   7
BRANCH  10  11
ATOM     11  C   UNL     1      -0.750   3.348   0.000  0.00  0.00    +0.091 C 
BRANCH  11  12
ATOM     12  C   UNL     1      -1.500   2.049   0.000  0.00  0.00    +0.050 C 
BRANCH  12  13
ATOM     13  C   UNL     1      -3.000   2.049   0.000  0.00  0.00    -0.046 A 
ATOM     14  C   UNL     1      -3.750   0.750   0.000  0.00  0.00    +0.003 A 
ATOM     15  C   UNL     1      -5.250   0.750   0.000  0.00  0.00    +0.000 A 
ATOM     16  C   UNL     1      -6.000   2.049   0.000  0.00  0.00    +0.000 A 
ATOM     17  C   UNL     1      -5.250   3.348   0.000  0.00  0.00    +0.000 A 
ATOM     18  C   UNL     1      -3.750   3.348   0.000  0.00  0.00    +0.003 A 
ENDBRANCH  12  13
ENDBRANCH  11  12
ENDBRANCH  10  11
TORSDOF 6