REMARK  Name = 202705
REMARK  2 active torsions:
REMARK  status: ('A' for Active; 'I' for Inactive)
REMARK    1  A    between atoms: C_10  and  N_17
REMARK    2  A    between atoms: C_11  and  N_20
REMARK                            x       y       z     vdW  Elec       q    Type
REMARK                         _______ _______ _______ _____ _____    ______ ____
ROOT
ATOM      6  N   UNL     1       2.049  -3.000   0.000  0.00  0.00    -0.269 N 
ATOM      7  H   UNL     1       1.196  -2.508   0.000  0.00  0.00    +0.156 HD
ATOM      8  C   UNL     1       3.348  -2.250   0.000  0.00  0.00    +0.308 C 
ATOM      9  O   UNL     1       3.348  -0.750   0.000  0.00  0.00    -0.252 OA
ATOM     10  N   UNL     1       4.647  -3.000   0.000  0.00  0.00    -0.267 N 
ATOM     11  H   UNL     1       4.733  -3.981   0.000  0.00  0.00    +0.156 HD
ENDROOT
BRANCH  10  12
ATOM     12  C   UNL     1       5.796  -2.036   0.000  0.00  0.00    +0.063 A 
ATOM     13  C   UNL     1       5.536  -0.559   0.000  0.00  0.00    +0.025 A 
ATOM     14  C   UNL     1       6.685   0.406   0.000  0.00  0.00    +0.004 A 
ATOM     15  C   UNL     1       8.094  -0.107   0.000  0.00  0.00    +0.031 A 
ATOM     16  C   UNL     1       8.355  -1.585   0.000  0.00  0.00    +0.102 A 
ATOM     17  N   UNL     1       9.627  -2.380   0.000  0.00  0.00    -0.191 NA
ATOM     18  S   UNL     1       9.264  -3.835   0.000  0.00  0.00    +0.117 S 
ATOM     19  N   UNL     1       7.768  -3.940   0.000  0.00  0.00    -0.189 NA
ATOM     20  C   UNL     1       7.206  -2.549   0.000  0.00  0.00    +0.121 A 
ENDBRANCH  10  12
BRANCH   6   5
ATOM      1 CL   UNL     1       2.049  -9.000   0.000  0.00  0.00    -0.084 Cl
ATOM      2  C   UNL     1       2.049  -7.500   0.000  0.00  0.00    +0.041 A 
ATOM      3  C   UNL     1       0.750  -6.750   0.000  0.00  0.00    +0.022 A 
ATOM      4  C   UNL     1       0.750  -5.250   0.000  0.00  0.00    +0.025 A 
ATOM      5  C   UNL     1       2.049  -4.500   0.000  0.00  0.00    +0.035 A 
ATOM     21  C   UNL     1       3.348  -5.250   0.000  0.00  0.00    +0.025 A 
ATOM     22  C   UNL     1       3.348  -6.750   0.000  0.00  0.00    +0.022 A 
ENDBRANCH   6   5
TORSDOF 2