REMARK  Name = 202883
REMARK  7 active torsions:
REMARK  status: ('A' for Active; 'I' for Inactive)
REMARK    1  A    between atoms: C_1  and  C_14
REMARK    2  A    between atoms: C_4  and  N_13
REMARK    3  A    between atoms: C_6  and  C_11
REMARK    4  A    between atoms: O_8  and  C_9
REMARK    5  A    between atoms: O_8  and  C_11
REMARK    6  A    between atoms: C_9  and  C_10
REMARK    7  A    between atoms: N_13  and  C_14
REMARK                            x       y       z     vdW  Elec       q    Type
REMARK                         _______ _______ _______ _____ _____    ______ ____
ROOT
ATOM      6  C   UNL     1      -4.172  -4.774   0.000  0.00  0.00    +0.028 A 
ATOM      7  C   UNL     1      -4.172  -6.274   0.000  0.00  0.00    +0.024 A 
ATOM      8  C   UNL     1      -5.471  -7.024   0.000  0.00  0.00    +0.017 A 
ATOM      9  C   UNL     1      -6.770  -6.274   0.000  0.00  0.00    +0.059 A 
ATOM     15  C   UNL     1      -6.770  -4.774   0.000  0.00  0.00    +0.017 A 
ATOM     16  C   UNL     1      -5.471  -4.024   0.000  0.00  0.00    +0.024 A 
ENDROOT
BRANCH   6   4
ATOM      4  N   UNL     1      -2.873  -4.024   0.000  0.00  0.00    -0.333 N 
ATOM      5  H   UNL     1      -2.873  -3.040   0.000  0.00  0.00    +0.147 HD
BRANCH   4   3
ATOM      3  C   UNL     1      -1.574  -4.774   0.000  0.00  0.00    +0.190 C 
BRANCH   3   1
ATOM      1  C   UNL     1      -0.275  -4.024   0.000  0.00  0.00    -0.087 C 
ATOM      2  C   UNL     1       1.025  -3.275   0.000  0.00  0.00    +0.005 C 
ENDBRANCH   3   1
ENDBRANCH   4   3
ENDBRANCH   6   4
BRANCH   9  10
ATOM     10  C   UNL     1      -8.069  -7.024   0.000  0.00  0.00    +0.339 C 
ATOM     11  O   UNL     1      -9.368  -6.274   0.000  0.00  0.00    -0.245 OA
BRANCH  10  12
ATOM     12  O   UNL     1      -8.069  -8.524   0.000  0.00  0.00    -0.461 OA
BRANCH  12  13
ATOM     13  C   UNL     1      -9.368  -9.274   0.000  0.00  0.00    +0.229 C 
ATOM     14  C   UNL     1      -9.368 -10.775   0.000  0.00  0.00    +0.048 C 
ENDBRANCH  12  13
ENDBRANCH  10  12
ENDBRANCH   9  10
TORSDOF 6