REMARK  Name = 194308
REMARK  8 active torsions:
REMARK  status: ('A' for Active; 'I' for Inactive)
REMARK    1  A    between atoms: C_1  and  C_9
REMARK    2  A    between atoms: C_1  and  C_10
REMARK    3  A    between atoms: C_2  and  C_14
REMARK    4  A    between atoms: C_5  and  C_11
REMARK    5  A    between atoms: C_11  and  N_12
REMARK    6  A    between atoms: C_14  and  S_15
REMARK    7  A    between atoms: S_15  and  S_16
REMARK    8  A    between atoms: S_16  and  O_19
REMARK                            x       y       z     vdW  Elec       q    Type
REMARK                         _______ _______ _______ _____ _____    ______ ____
ROOT
ATOM      9  N   UNL     1       4.743   5.104   0.000  0.00  0.00    -0.237 N 
ATOM     10  H   UNL     1       4.743   4.120   0.000  0.00  0.00    +0.291 HD
ATOM     11  C   UNL     1       6.042   5.854   0.000  0.00  0.00    +0.290 C 
ATOM     19  N   UNL     1       6.042   7.354   0.000  0.00  0.00    -0.103 NA
ATOM     20  H   UNL     1       6.895   7.847   0.000  0.00  0.00    +0.363 HD
ENDROOT
BRANCH   9   8
ATOM      8  C   UNL     1       3.444   5.854   0.000  0.00  0.00    +0.226 C 
BRANCH   8   7
ATOM      1  C   UNL     1      -0.453   5.104   0.000  0.00  0.00    -0.029 C 
ATOM      2  C   UNL     1      -0.966   6.514   0.000  0.00  0.00    +0.011 C 
ATOM      3  C   UNL     1      -1.931   4.844   0.000  0.00  0.00    +0.011 C 
ATOM      4  C   UNL     1      -0.453   3.604   0.000  0.00  0.00    -0.005 C 
ATOM      5  C   UNL     1       0.846   2.854   0.000  0.00  0.00    +0.004 C 
ATOM      6  C   UNL     1       2.145   3.604   0.000  0.00  0.00    +0.008 C 
ATOM      7  C   UNL     1       2.145   5.104   0.000  0.00  0.00    +0.032 C 
ATOM     21  C   UNL     1       0.846   4.354   0.000  0.00  0.00    +0.008 C 
ATOM     22  C   UNL     1       0.846   5.854   0.000  0.00  0.00    +0.002 C 
ENDBRANCH   8   7
ENDBRANCH   9   8
BRANCH  11  12
ATOM     12  C   UNL     1       7.341   5.104   0.000  0.00  0.00    +0.223 C 
BRANCH  12  13
ATOM     13  S   UNL     1       8.640   5.854   0.000  0.00  0.00    +0.039 S 
BRANCH  13  14
ATOM     14  S   UNL     1       8.640   7.354   0.000  0.00  0.00    +0.136 S 
ATOM     17  O   UNL     1      10.140   7.354   0.000  0.00  0.00    -0.135 OA
ATOM     18  O   UNL     1       7.140   7.354   0.000  0.00  0.00    -0.135 OA
BRANCH  14  15
ATOM     15  O   UNL     1       8.640   8.854   0.000  0.00  0.00    -0.245 OA
ATOM     16  H   UNL     1       9.480   9.339   0.000  0.00  0.00    +0.245 HD
ENDBRANCH  14  15
ENDBRANCH  13  14
ENDBRANCH  12  13
ENDBRANCH  11  12
TORSDOF 6