REMARK  Name = 19848
REMARK  0 active torsions:
REMARK  status: ('A' for Active; 'I' for Inactive)
REMARK                            x       y       z     vdW  Elec       q    Type
REMARK                         _______ _______ _______ _____ _____    ______ ____
ROOT
ATOM      1  N   UNL     1      -4.647  -0.750   0.000  0.00  0.00    -0.253 NA
ATOM      2  C   UNL     1      -3.348  -1.500   0.000  0.00  0.00    +0.063 A 
ATOM      3  C   UNL     1      -3.348  -3.000   0.000  0.00  0.00    +0.063 A 
ATOM      4  C   UNL     1      -2.049  -3.750   0.000  0.00  0.00    +0.057 C 
ATOM      5  C   UNL     1      -0.750  -3.000   0.000  0.00  0.00    +0.007 C 
ATOM      6  C   UNL     1      -0.750  -1.500   0.000  0.00  0.00    +0.007 C 
ATOM      7  N   UNL     1      -4.647  -3.750   0.000  0.00  0.00    -0.253 NA
ATOM      8  C   UNL     1      -5.946  -3.000   0.000  0.00  0.00    +0.063 A 
ATOM      9  C   UNL     1      -7.245  -3.750   0.000  0.00  0.00    +0.057 C 
ATOM     10  C   UNL     1      -8.544  -3.000   0.000  0.00  0.00    +0.007 C 
ATOM     11  C   UNL     1      -8.544  -1.500   0.000  0.00  0.00    +0.007 C 
ATOM     12  C   UNL     1      -7.245  -0.750   0.000  0.00  0.00    +0.057 C 
ATOM     13  C   UNL     1      -2.049  -0.750   0.000  0.00  0.00    +0.057 C 
ATOM     14  C   UNL     1      -5.946  -1.500   0.000  0.00  0.00    +0.063 A 
ENDROOT
TORSDOF 0