REMARK  Name = 204920
REMARK  3 active torsions:
REMARK  status: ('A' for Active; 'I' for Inactive)
REMARK    1  A    between atoms: C_6  and  C_13
REMARK    2  A    between atoms: C_7  and  C_14
REMARK    3  A    between atoms: C_12  and  N_15
REMARK                            x       y       z     vdW  Elec       q    Type
REMARK                         _______ _______ _______ _____ _____    ______ ____
ROOT
ATOM      7  C   UNL     1       5.250  -5.946   0.000  0.00  0.00    -0.025 A 
ATOM      8  C   UNL     1       6.000  -4.647   0.000  0.00  0.00    +0.014 A 
ATOM      9  C   UNL     1       5.250  -3.348   0.000  0.00  0.00    +0.085 A 
ATOM     10  C   UNL     1       3.750  -3.348   0.000  0.00  0.00    +0.273 A 
ATOM     14  C   UNL     1       3.000  -4.647   0.000  0.00  0.00    +0.085 A 
ATOM     15  C   UNL     1       3.750  -5.946   0.000  0.00  0.00    +0.014 A 
ENDROOT
BRANCH  10  11
ATOM     11  N   UNL     1       3.000  -2.049   0.000  0.00  0.00    +0.080 N 
ATOM     12  O   UNL     1       3.750  -0.750   0.000  0.00  0.00    +0.041 OA
ATOM     13  O   UNL     1       1.500  -2.049   0.000  0.00  0.00    -0.576 OA
ENDBRANCH  10  11
BRANCH   7   6
ATOM      5  C   UNL     1       5.250  -8.544   0.000  0.00  0.00    +0.008 C 
ATOM      6  C   UNL     1       6.000  -7.245   0.000  0.00  0.00    +0.008 C 
BRANCH   5   4
ATOM      1  N   UNL     1       0.750  -8.544   0.000  0.00  0.00    -0.263 NA
ATOM      2  C   UNL     1       1.500  -9.843   0.000  0.00  0.00    +0.111 A 
ATOM      3  C   UNL     1       3.000  -9.843   0.000  0.00  0.00    +0.027 A 
ATOM      4  C   UNL     1       3.750  -8.544   0.000  0.00  0.00    -0.022 A 
ATOM     16  C   UNL     1       3.000  -7.245   0.000  0.00  0.00    +0.027 A 
ATOM     17  C   UNL     1       1.500  -7.245   0.000  0.00  0.00    +0.111 A 
ENDBRANCH   5   4
ENDBRANCH   7   6
TORSDOF 3