REMARK  Name = 20586
REMARK  2 active torsions:
REMARK  status: ('A' for Active; 'I' for Inactive)
REMARK    1  A    between atoms: C_3  and  N_11
REMARK    2  A    between atoms: C_5  and  N_10
REMARK                            x       y       z     vdW  Elec       q    Type
REMARK                         _______ _______ _______ _____ _____    ______ ____
ROOT
ATOM      1  C   UNL     1      -5.946  -0.750   0.000  0.00  0.00    +0.045 A 
ATOM      2  C   UNL     1      -7.245  -1.500   0.000  0.00  0.00    +0.045 A 
ATOM      3  C   UNL     1      -7.245  -3.000   0.000  0.00  0.00    +0.100 A 
ATOM     12  C   UNL     1      -5.946  -3.750   0.000  0.00  0.00    +0.045 A 
ATOM     13  C   UNL     1      -4.647  -3.000   0.000  0.00  0.00    +0.045 A 
ATOM     14  C   UNL     1      -4.647  -1.500   0.000  0.00  0.00    +0.100 A 
ENDROOT
BRANCH   3   4
ATOM      4  N   UNL     1      -8.544  -3.750   0.000  0.00  0.00    -0.244 N 
ATOM      5  H   UNL     1      -8.544  -4.734   0.000  0.00  0.00    +0.265 HD
ATOM      6  C   UNL     1      -9.843  -3.000   0.000  0.00  0.00    +0.381 C 
ATOM      7  N   UNL     1      -9.843  -1.500   0.000  0.00  0.00    -0.289 N 
ATOM      8  H   UNL     1     -10.696  -1.008   0.000  0.00  0.00    +0.255 HD
ATOM      9  H   UNL     1      -8.991  -1.008   0.000  0.00  0.00    +0.255 HD
ATOM     10  N   UNL     1     -11.142  -3.750   0.000  0.00  0.00    -0.129 NA
ATOM     11  H   UNL     1     -11.995  -3.258   0.000  0.00  0.00    +0.306 HD
ENDBRANCH   3   4
BRANCH  14  15
ATOM     15  N   UNL     1      -3.348  -0.750   0.000  0.00  0.00    -0.244 N 
ATOM     16  H   UNL     1      -3.348   0.234   0.000  0.00  0.00    +0.265 HD
ATOM     17  C   UNL     1      -2.049  -1.500   0.000  0.00  0.00    +0.381 C 
ATOM     18  N   UNL     1      -2.049  -3.000   0.000  0.00  0.00    -0.129 NA
ATOM     19  H   UNL     1      -2.902  -3.492   0.000  0.00  0.00    +0.306 HD
ATOM     20  N   UNL     1      -0.750  -0.750   0.000  0.00  0.00    -0.289 N 
ATOM     21  H   UNL     1      -0.750   0.234   0.000  0.00  0.00    +0.255 HD
ATOM     22  H   UNL     1       0.103  -1.242   0.000  0.00  0.00    +0.255 HD
ENDBRANCH  14  15
TORSDOF 2