REMARK  Name = 204976
REMARK  3 active torsions:
REMARK  status: ('A' for Active; 'I' for Inactive)
REMARK    1  A    between atoms: C_4  and  N_15
REMARK    2  A    between atoms: C_9  and  C_13
REMARK    3  A    between atoms: N_15  and  C_16
REMARK                            x       y       z     vdW  Elec       q    Type
REMARK                         _______ _______ _______ _____ _____    ______ ____
ROOT
ATOM      5  C   UNL     1      -5.571   0.851   0.000  0.00  0.00    +0.251 C 
ATOM      6  N   UNL     1      -4.272   0.101   0.000  0.00  0.00    -0.271 N 
ATOM      7  C   UNL     1      -2.973   0.851   0.000  0.00  0.00    +0.138 C 
ATOM     14  O   UNL     1      -5.571   2.350   0.000  0.00  0.00    -0.270 OA
ENDROOT
BRANCH   5   4
ATOM      1  N   UNL     1      -9.468  -1.400   0.000  0.00  0.00    -0.263 NA
ATOM      2  C   UNL     1      -8.169  -2.150   0.000  0.00  0.00    +0.111 A 
ATOM      3  C   UNL     1      -6.870  -1.400   0.000  0.00  0.00    +0.033 A 
ATOM      4  C   UNL     1      -6.870   0.101   0.000  0.00  0.00    +0.040 A 
ATOM     15  C   UNL     1      -8.169   0.851   0.000  0.00  0.00    +0.033 A 
ATOM     16  C   UNL     1      -9.468   0.101   0.000  0.00  0.00    +0.111 A 
ENDBRANCH   5   4
BRANCH   6   8
ATOM      8  C   UNL     1      -4.272  -1.400   0.000  0.00  0.00    +0.036 A 
ATOM      9  C   UNL     1      -5.571  -2.150   0.000  0.00  0.00    +0.023 A 
ATOM     10  C   UNL     1      -5.571  -3.650   0.000  0.00  0.00    +0.002 A 
ATOM     11  C   UNL     1      -4.272  -4.399   0.000  0.00  0.00    +0.000 A 
ATOM     12  C   UNL     1      -2.973  -3.650   0.000  0.00  0.00    +0.002 A 
ATOM     13  C   UNL     1      -2.973  -2.150   0.000  0.00  0.00    +0.023 A 
ENDBRANCH   6   8
TORSDOF 2