REMARK  Name = 205913
REMARK  5 active torsions:
REMARK  status: ('A' for Active; 'I' for Inactive)
REMARK    1  A    between atoms: C_3  and  N_13
REMARK    2  A    between atoms: C_7  and  O_12
REMARK    3  A    between atoms: C_11  and  C_17
REMARK    4  A    between atoms: N_13  and  C_14
REMARK    5  A    between atoms: C_14  and  N_16
REMARK                            x       y       z     vdW  Elec       q    Type
REMARK                         _______ _______ _______ _____ _____    ______ ____
ROOT
ATOM      7  C   UNL     1       0.761   7.926   0.000  0.00  0.00    +0.141 C 
ATOM      8  S   UNL     1      -0.537   8.676   0.000  0.00  0.00    -0.018 S 
ENDROOT
BRANCH   7   5
ATOM      3  C   UNL     1       2.061  10.176   0.000  0.00  0.00    +0.285 C 
ATOM      4  O   UNL     1       0.761  10.926   0.000  0.00  0.00    -0.266 OA
ATOM      5  N   UNL     1       2.061   8.676   0.000  0.00  0.00    -0.261 N 
ATOM      6  H   UNL     1       2.913   8.184   0.000  0.00  0.00    +0.157 HD
BRANCH   3   2
ATOM      1  O   UNL     1       3.516  12.418   0.000  0.00  0.00    -0.458 OA
ATOM      2  C   UNL     1       3.360  10.926   0.000  0.00  0.00    +0.189 A 
ATOM     19  C   UNL     1       4.730  10.316   0.000  0.00  0.00    +0.054 A 
ATOM     20  C   UNL     1       5.734  11.431   0.000  0.00  0.00    +0.042 A 
ATOM     21  C   UNL     1       4.984  12.730   0.000  0.00  0.00    +0.196 A 
ENDBRANCH   3   2
ENDBRANCH   7   5
BRANCH   7   9
ATOM      9  N   UNL     1       0.761   6.426   0.000  0.00  0.00    -0.296 N 
ATOM     10  H   UNL     1       1.614   5.934   0.000  0.00  0.00    +0.154 HD
BRANCH   9  11
ATOM     11  C   UNL     1      -0.537   5.676   0.000  0.00  0.00    +0.036 A 
ATOM     12  C   UNL     1      -0.537   4.176   0.000  0.00  0.00    +0.068 A 
ATOM     13  C   UNL     1      -1.837   3.426   0.000  0.00  0.00    +0.119 A 
ATOM     16  C   UNL     1      -3.136   4.176   0.000  0.00  0.00    +0.045 A 
ATOM     17  C   UNL     1      -3.136   5.676   0.000  0.00  0.00    +0.005 A 
ATOM     18  C   UNL     1      -1.837   6.426   0.000  0.00  0.00    +0.023 A 
BRANCH  13  14
ATOM     14  O   UNL     1      -1.837   1.926   0.000  0.00  0.00    -0.507 OA
ATOM     15  H   UNL     1      -2.648   1.458   0.000  0.00  0.00    +0.292 HD
ENDBRANCH  13  14
ENDBRANCH   9  11
ENDBRANCH   7   9
TORSDOF 5