REMARK  Name = 201659
REMARK  6 active torsions:
REMARK  status: ('A' for Active; 'I' for Inactive)
REMARK    1  A    between atoms: N_3  and  C_7
REMARK    2  A    between atoms: C_12  and  C_15
REMARK    3  A    between atoms: C_12  and  C_20
REMARK    4  A    between atoms: C_15  and  O_17
REMARK    5  A    between atoms: O_17  and  C_18
REMARK    6  A    between atoms: C_18  and  C_19
REMARK                            x       y       z     vdW  Elec       q    Type
REMARK                         _______ _______ _______ _____ _____    ______ ____
ROOT
ATOM      1  O   UNL     1       4.912   0.104   0.000  0.00  0.00    -0.294 OA
ATOM      2  C   UNL     1       5.793  -1.109   0.000  0.00  0.00    +0.181 C 
ATOM      3  C   UNL     1       7.293  -1.109   0.000  0.00  0.00    +0.152 C 
ATOM      4  S   UNL     1       7.757  -2.536   0.000  0.00  0.00    -0.100 S 
ATOM      5  C   UNL     1       6.543  -3.417   0.000  0.00  0.00    +0.113 C 
ATOM      6  N   UNL     1       6.543  -4.917   0.000  0.00  0.00    -0.241 NA
ATOM     14  C   UNL     1       5.330  -2.536   0.000  0.00  0.00    +0.258 C 
ENDROOT
BRANCH   6   7
ATOM      7  C   UNL     1       5.245  -5.667   0.000  0.00  0.00    +0.083 A 
ATOM      8  C   UNL     1       3.946  -4.917   0.000  0.00  0.00    +0.066 A 
ATOM      9  C   UNL     1       2.646  -5.667   0.000  0.00  0.00    +0.022 A 
ATOM     10  C   UNL     1       2.646  -7.167   0.000  0.00  0.00    +0.002 A 
ATOM     11  C   UNL     1       3.946  -7.917   0.000  0.00  0.00    +0.002 A 
ATOM     12 CL   UNL     1       3.946  -3.417   0.000  0.00  0.00    -0.081 Cl
ATOM     13  C   UNL     1       5.245  -7.167   0.000  0.00  0.00    +0.029 A 
ENDBRANCH   6   7
BRANCH  14  15
ATOM     15  C   UNL     1       4.580  -3.835   0.000  0.00  0.00    +0.096 C 
ATOM     16  N   UNL     1       3.830  -5.134   0.000  0.00  0.00    -0.195 NA
ENDBRANCH  14  15
BRANCH  14  17
ATOM     17  C   UNL     1       3.960  -1.926   0.000  0.00  0.00    +0.341 C 
ATOM     21  O   UNL     1       3.803  -0.434   0.000  0.00  0.00    -0.248 OA
BRANCH  17  18
ATOM     18  O   UNL     1       2.746  -2.807   0.000  0.00  0.00    -0.463 OA
BRANCH  18  19
ATOM     19  C   UNL     1       2.903  -4.299   0.000  0.00  0.00    +0.229 C 
ATOM     20  C   UNL     1       1.689  -5.181   0.000  0.00  0.00    +0.048 C 
ENDBRANCH  18  19
ENDBRANCH  17  18
ENDBRANCH  14  17
TORSDOF 5