REMARK  Name = 201868
REMARK  6 active torsions:
REMARK  status: ('A' for Active; 'I' for Inactive)
REMARK    1  A    between atoms: C_10  and  C_17
REMARK    2  A    between atoms: C_12  and  C_21
REMARK    3  A    between atoms: C_14  and  N_22
REMARK    4  A    between atoms: N_19  and  N_20
REMARK    5  A    between atoms: N_22  and  C_23
REMARK    6  A    between atoms: N_22  and  C_24
REMARK                            x       y       z     vdW  Elec       q    Type
REMARK                         _______ _______ _______ _____ _____    ______ ____
ROOT
ATOM      6  C   UNL     1     -10.118   3.475   0.000  0.00  0.00    +0.265 C 
ATOM      7  N   UNL     1     -10.118   1.976   0.000  0.00  0.00    -0.203 N 
ATOM      8  H   UNL     1     -10.970   1.483   0.000  0.00  0.00    +0.178 HD
ATOM     20  O   UNL     1      -8.819   4.226   0.000  0.00  0.00    -0.268 OA
ENDROOT
BRANCH   6   5
ATOM      1  N   UNL     1     -12.716   6.476   0.000  0.00  0.00    -0.254 NA
ATOM      2  C   UNL     1     -14.015   5.726   0.000  0.00  0.00    +0.071 A 
ATOM      3  C   UNL     1     -14.015   4.226   0.000  0.00  0.00    +0.001 A 
ATOM      4  C   UNL     1     -12.716   3.475   0.000  0.00  0.00    +0.024 A 
ATOM      5  C   UNL     1     -11.417   4.226   0.000  0.00  0.00    +0.057 A 
ATOM     21  C   UNL     1     -15.314   3.475   0.000  0.00  0.00    +0.010 A 
ATOM     22  C   UNL     1     -16.613   4.226   0.000  0.00  0.00    +0.001 A 
ATOM     23  C   UNL     1     -16.613   5.726   0.000  0.00  0.00    +0.002 A 
ATOM     24  C   UNL     1     -15.314   6.476   0.000  0.00  0.00    +0.028 A 
ATOM     25  C   UNL     1     -11.417   5.726   0.000  0.00  0.00    +0.124 A 
ENDBRANCH   6   5
BRANCH   7   9
ATOM      9  N   UNL     1      -8.819   1.226   0.000  0.00  0.00    -0.187 NA
ATOM     10  C   UNL     1      -7.520   1.976   0.000  0.00  0.00    +0.138 C 
BRANCH  10  11
ATOM     11  C   UNL     1      -6.221   1.226   0.000  0.00  0.00    -0.005 A 
ATOM     12  C   UNL     1      -6.221  -0.275   0.000  0.00  0.00    +0.011 A 
ATOM     13  C   UNL     1      -4.922  -1.025   0.000  0.00  0.00    +0.024 A 
ATOM     14  C   UNL     1      -3.623  -0.275   0.000  0.00  0.00    +0.029 A 
ATOM     18  C   UNL     1      -3.623   1.226   0.000  0.00  0.00    +0.024 A 
ATOM     19  C   UNL     1      -4.922   1.976   0.000  0.00  0.00    +0.011 A 
BRANCH  14  15
ATOM     15  N   UNL     1      -2.324  -1.025   0.000  0.00  0.00    -0.336 N 
ATOM     16  C   UNL     1      -2.324  -2.525   0.000  0.00  0.00    +0.129 C 
ATOM     17  C   UNL     1      -1.025  -0.275   0.000  0.00  0.00    +0.129 C 
ENDBRANCH  14  15
ENDBRANCH  10  11
ENDBRANCH   7   9
TORSDOF 4