REMARK  Name = 20045
REMARK  7 active torsions:
REMARK  status: ('A' for Active; 'I' for Inactive)
REMARK    1  A    between atoms: C_2  and  C_10
REMARK    2  A    between atoms: C_5  and  C_7
REMARK    3  A    between atoms: C_7  and  C_8
REMARK    4  A    between atoms: C_7  and  C_9
REMARK    5  A    between atoms: N_12  and  C_13
REMARK    6  A    between atoms: C_13  and  C_14
REMARK    7  A    between atoms: C_13  and  C_15
REMARK                            x       y       z     vdW  Elec       q    Type
REMARK                         _______ _______ _______ _____ _____    ______ ____
ROOT
ATOM      1  C   UNL     1      -0.924   7.399   0.000  0.00  0.00    +0.013 A 
ATOM      2  C   UNL     1       0.375   6.649   0.000  0.00  0.00    +0.037 A 
ATOM     10  C   UNL     1       0.375   5.149   0.000  0.00  0.00    +0.013 A 
ATOM     11  C   UNL     1      -0.924   4.399   0.000  0.00  0.00    +0.004 A 
ATOM     12  C   UNL     1      -2.223   5.149   0.000  0.00  0.00    -0.045 A 
ATOM     16  C   UNL     1      -2.223   6.649   0.000  0.00  0.00    +0.004 A 
ENDROOT
BRANCH   2   3
ATOM      3  C   UNL     1       1.674   7.399   0.000  0.00  0.00    +0.244 C 
ATOM      4  N   UNL     1       1.674   8.899   0.000  0.00  0.00    -0.309 N 
ATOM      5  H   UNL     1       2.527   9.392   0.000  0.00  0.00    +0.149 HD
ATOM      9  O   UNL     1       2.973   6.649   0.000  0.00  0.00    -0.270 OA
BRANCH   4   6
ATOM      6  C   UNL     1       0.375   9.649   0.000  0.00  0.00    +0.067 C 
ATOM      7  C   UNL     1       0.375  11.150   0.000  0.00  0.00    +0.027 C 
ATOM      8  C   UNL     1      -0.924   8.899   0.000  0.00  0.00    +0.027 C 
ENDBRANCH   4   6
ENDBRANCH   2   3
BRANCH  12  13
ATOM     13  C   UNL     1      -3.522   4.399   0.000  0.00  0.00    +0.013 C 
ATOM     14  C   UNL     1      -3.522   2.900   0.000  0.00  0.00    +0.012 C 
ATOM     15  C   UNL     1      -4.821   5.149   0.000  0.00  0.00    +0.012 C 
ENDBRANCH  12  13
TORSDOF 3