REMARK  Name = 205842
REMARK  6 active torsions:
REMARK  status: ('A' for Active; 'I' for Inactive)
REMARK    1  A    between atoms: C_1  and  C_13
REMARK    2  A    between atoms: C_2  and  N_15
REMARK    3  A    between atoms: C_4  and  C_14
REMARK    4  A    between atoms: C_8  and  N_18
REMARK    5  A    between atoms: C_10  and  S_19
REMARK    6  A    between atoms: S_19  and  N_22
REMARK                            x       y       z     vdW  Elec       q    Type
REMARK                         _______ _______ _______ _____ _____    ______ ____
ROOT
ATOM      9  N   UNL     1       0.375   5.149   0.000  0.00  0.00    -0.269 N 
ATOM     10  H   UNL     1       1.228   4.657   0.000  0.00  0.00    +0.156 HD
ATOM     11  C   UNL     1       0.375   6.649   0.000  0.00  0.00    +0.308 C 
ATOM     12  N   UNL     1       1.674   7.399   0.000  0.00  0.00    -0.269 N 
ATOM     13  H   UNL     1       2.527   6.907   0.000  0.00  0.00    +0.156 HD
ATOM     26  O   UNL     1      -0.924   7.399   0.000  0.00  0.00    -0.252 OA
ENDROOT
BRANCH   9   8
ATOM      1  C   UNL     1      -2.223   5.149   0.000  0.00  0.00    -0.029 A 
ATOM      2  C   UNL     1      -2.223   6.649   0.000  0.00  0.00    +0.045 C 
ATOM      3  C   UNL     1      -3.522   4.399   0.000  0.00  0.00    +0.005 A 
ATOM      4  C   UNL     1      -3.522   2.900   0.000  0.00  0.00    +0.001 A 
ATOM      5  C   UNL     1      -2.223   2.150   0.000  0.00  0.00    +0.005 A 
ATOM      6  C   UNL     1      -0.924   2.900   0.000  0.00  0.00    -0.029 A 
ATOM      7  C   UNL     1       0.375   2.150   0.000  0.00  0.00    +0.045 C 
ATOM      8  C   UNL     1      -0.924   4.399   0.000  0.00  0.00    +0.041 A 
ENDBRANCH   9   8
BRANCH  12  14
ATOM     14  C   UNL     1       1.674   8.899   0.000  0.00  0.00    +0.035 A 
ATOM     15  C   UNL     1       2.973   9.649   0.000  0.00  0.00    +0.025 A 
ATOM     16  C   UNL     1       2.973  11.150   0.000  0.00  0.00    +0.030 A 
ATOM     17  C   UNL     1       1.674  11.900   0.000  0.00  0.00    +0.105 A 
ATOM     24  C   UNL     1       0.375  11.150   0.000  0.00  0.00    +0.030 A 
ATOM     25  C   UNL     1       0.375   9.649   0.000  0.00  0.00    +0.025 A 
BRANCH  17  18
ATOM     18  S   UNL     1       1.674  13.400   0.000  0.00  0.00    +0.056 S 
ATOM     22  O   UNL     1       0.174  13.400   0.000  0.00  0.00    -0.153 OA
ATOM     23  O   UNL     1       3.174  13.400   0.000  0.00  0.00    -0.153 OA
BRANCH  18  19
ATOM     19  N   UNL     1       1.674  14.900   0.000  0.00  0.00    -0.204 NA
ATOM     20  H   UNL     1       0.791  15.410   0.000  0.00  0.00    +0.144 HD
ATOM     21  H   UNL     1       2.557  15.410   0.000  0.00  0.00    +0.144 HD
ENDBRANCH  18  19
ENDBRANCH  17  18
ENDBRANCH  12  14
TORSDOF 4