REMARK  Name = 194242
REMARK  2 active torsions:
REMARK  status: ('A' for Active; 'I' for Inactive)
REMARK    1  A    between atoms: N_3  and  C_11
REMARK    2  A    between atoms: C_9  and  C_12
REMARK                            x       y       z     vdW  Elec       q    Type
REMARK                         _______ _______ _______ _____ _____    ______ ____
ROOT
ATOM      1  N   UNL     1      -7.736   0.619   0.000  0.00  0.00    -0.234 NA
ATOM      2  C   UNL     1      -6.436  -0.131   0.000  0.00  0.00    +0.160 A 
ATOM      3  C   UNL     1      -6.436  -1.631   0.000  0.00  0.00    +0.118 A 
ATOM      4  C   UNL     1      -5.010  -2.095   0.000  0.00  0.00    +0.059 A 
ATOM      7  C   UNL     1      -4.128  -0.881   0.000  0.00  0.00    +0.100 A 
ATOM      8  N   UNL     1      -7.736  -2.381   0.000  0.00  0.00    -0.250 NA
ATOM      9  C   UNL     1      -9.035  -1.631   0.000  0.00  0.00    +0.131 A 
ATOM     10  N   UNL     1      -5.010   0.332   0.000  0.00  0.00    -0.333 N 
ATOM     11  C   UNL     1      -4.546   1.759   0.000  0.00  0.00    +0.150 C 
ATOM     12  C   UNL     1      -9.035  -0.131   0.000  0.00  0.00    +0.133 A 
ENDROOT
BRANCH   4   5
ATOM      5  C   UNL     1      -4.546  -3.521   0.000  0.00  0.00    +0.262 C 
ATOM      6  O   UNL     1      -3.079  -3.833   0.000  0.00  0.00    -0.296 OA
ENDBRANCH   4   5
TORSDOF 1