REMARK  Name = 20619
REMARK  4 active torsions:
REMARK  status: ('A' for Active; 'I' for Inactive)
REMARK    1  A    between atoms: C_8  and  C_18
REMARK    2  A    between atoms: C_9  and  C_15
REMARK    3  A    between atoms: C_12  and  N_16
REMARK    4  A    between atoms: C_12  and  N_17
REMARK                            x       y       z     vdW  Elec       q    Type
REMARK                         _______ _______ _______ _____ _____    ______ ____
ROOT
ATOM      9  C   UNL     1      -6.649   0.375   0.000  0.00  0.00    +0.141 C 
ATOM     19  S   UNL     1      -5.899   1.674   0.000  0.00  0.00    -0.018 S 
ENDROOT
BRANCH   9   7
ATOM      1  C   UNL     1      -2.150   0.375   0.000  0.00  0.00    +0.113 A 
ATOM      2  C   UNL     1      -1.400  -0.924   0.000  0.00  0.00    +0.020 A 
ATOM      3  C   UNL     1      -2.150  -2.223   0.000  0.00  0.00    +0.008 A 
ATOM      4  C   UNL     1      -3.650  -2.223   0.000  0.00  0.00    -0.010 A 
ATOM      5  C   UNL     1      -4.399  -3.522   0.000  0.00  0.00    +0.047 C 
ATOM      6  C   UNL     1      -4.399  -0.924   0.000  0.00  0.00    +0.127 A 
ATOM      7  N   UNL     1      -5.899  -0.924   0.000  0.00  0.00    -0.281 N 
ATOM      8  H   UNL     1      -6.392  -1.777   0.000  0.00  0.00    +0.155 HD
ATOM     20  N   UNL     1      -3.650   0.375   0.000  0.00  0.00    -0.240 NA
ENDBRANCH   9   7
BRANCH   9  10
ATOM     10  N   UNL     1      -8.149   0.375   0.000  0.00  0.00    -0.281 N 
ATOM     11  H   UNL     1      -8.642  -0.478   0.000  0.00  0.00    +0.155 HD
ATOM     12  C   UNL     1      -8.899   1.674   0.000  0.00  0.00    +0.127 A 
ATOM     13  C   UNL     1     -10.400   1.674   0.000  0.00  0.00    -0.010 A 
ATOM     14  C   UNL     1     -11.150   0.375   0.000  0.00  0.00    +0.047 C 
ATOM     15  C   UNL     1     -11.150   2.973   0.000  0.00  0.00    +0.008 A 
ATOM     16  C   UNL     1     -10.400   4.272   0.000  0.00  0.00    +0.020 A 
ATOM     17  C   UNL     1      -8.899   4.272   0.000  0.00  0.00    +0.113 A 
ATOM     18  N   UNL     1      -8.149   2.973   0.000  0.00  0.00    -0.240 NA
ENDBRANCH   9  10
TORSDOF 2