REMARK  Name = 205832
REMARK  10 active torsions:
REMARK  status: ('A' for Active; 'I' for Inactive)
REMARK    1  A    between atoms: O_2  and  C_12
REMARK    2  A    between atoms: O_2  and  C_19
REMARK    3  A    between atoms: O_3  and  C_13
REMARK    4  A    between atoms: O_3  and  C_21
REMARK    5  A    between atoms: C_4  and  O_16
REMARK    6  A    between atoms: C_5  and  N_18
REMARK    7  A    between atoms: O_16  and  C_17
REMARK    8  A    between atoms: C_21  and  C_22
REMARK    9  A    between atoms: C_22  and  C_23
REMARK   10  A    between atoms: C_23  and  C_24
REMARK                            x       y       z     vdW  Elec       q    Type
REMARK                         _______ _______ _______ _____ _____    ______ ____
ROOT
ATOM      9  N   UNL     1       4.647  -9.750   0.000  0.00  0.00    -0.247 N 
ATOM     10  H   UNL     1       5.500 -10.242   0.000  0.00  0.00    +0.158 HD
ATOM     11  C   UNL     1       4.647  -8.250   0.000  0.00  0.00    +0.410 C 
ATOM     12  O   UNL     1       3.348  -7.500   0.000  0.00  0.00    -0.226 OA
ENDROOT
BRANCH   9   8
ATOM      1 CL   UNL     1       2.049 -14.250   0.000  0.00  0.00    -0.083 Cl
ATOM      2  C   UNL     1       2.049 -12.750   0.000  0.00  0.00    +0.043 A 
ATOM      3  C   UNL     1       0.750 -12.000   0.000  0.00  0.00    +0.024 A 
ATOM      4  C   UNL     1       0.750 -10.500   0.000  0.00  0.00    +0.049 A 
ATOM      5  C   UNL     1       2.049  -9.750   0.000  0.00  0.00    +0.141 A 
ATOM      8  C   UNL     1       3.348 -10.500   0.000  0.00  0.00    +0.080 A 
ATOM     25  C   UNL     1       3.348 -12.000   0.000  0.00  0.00    +0.047 A 
BRANCH   5   6
ATOM      6  O   UNL     1       2.049  -8.250   0.000  0.00  0.00    -0.493 OA
ATOM      7  C   UNL     1       0.750  -7.500   0.000  0.00  0.00    +0.277 C 
ENDBRANCH   5   6
ENDBRANCH   9   8
BRANCH  11  13
ATOM     13  O   UNL     1       5.946  -7.500   0.000  0.00  0.00    -0.411 OA
BRANCH  13  14
ATOM     14  C   UNL     1       5.946  -6.000   0.000  0.00  0.00    +0.133 A 
ATOM     15  C   UNL     1       7.245  -5.250   0.000  0.00  0.00    +0.050 A 
ATOM     16  C   UNL     1       7.245  -3.750   0.000  0.00  0.00    +0.049 A 
ATOM     17  C   UNL     1       5.946  -3.000   0.000  0.00  0.00    +0.121 A 
ATOM     18  C   UNL     1       4.647  -3.750   0.000  0.00  0.00    +0.049 A 
ATOM     24  C   UNL     1       4.647  -5.250   0.000  0.00  0.00    +0.050 A 
BRANCH  17  19
ATOM     19  O   UNL     1       5.946  -1.500   0.000  0.00  0.00    -0.492 OA
BRANCH  19  20
ATOM     20  C   UNL     1       4.647  -0.750   0.000  0.00  0.00    +0.229 C 
BRANCH  20  21
ATOM     21  C   UNL     1       3.348  -1.500   0.000  0.00  0.00    +0.041 C 
BRANCH  21  22
ATOM     22  C   UNL     1       2.049  -0.750   0.000  0.00  0.00    -0.000 C 
ATOM     23  C   UNL     1       0.750  -1.500   0.000  0.00  0.00    +0.004 C 
ENDBRANCH  21  22
ENDBRANCH  20  21
ENDBRANCH  19  20
ENDBRANCH  17  19
ENDBRANCH  13  14
ENDBRANCH  11  13
TORSDOF 8