REMARK  Name = 202386
REMARK  8 active torsions:
REMARK  status: ('A' for Active; 'I' for Inactive)
REMARK    1  A    between atoms: C_7  and  N_29
REMARK    2  A    between atoms: C_9  and  N_32
REMARK    3  A    between atoms: C_13  and  N_38
REMARK    4  A    between atoms: C_15  and  N_39
REMARK    5  A    between atoms: C_20  and  C_36
REMARK    6  A    between atoms: C_21  and  N_33
REMARK    7  A    between atoms: C_22  and  N_32
REMARK    8  A    between atoms: C_25  and  N_39
REMARK                            x       y       z     vdW  Elec       q    Type
REMARK                         _______ _______ _______ _____ _____    ______ ____
ROOT
ATOM      7  C   UNL     1     -15.964   2.350   0.000  0.00  0.00    +0.038 A 
ATOM      8  C   UNL     1     -15.964   0.851   0.000  0.00  0.00    +0.108 A 
ATOM      9  C   UNL     1     -14.664   0.101   0.000  0.00  0.00    +0.287 A 
ATOM     13  C   UNL     1     -13.365   0.851   0.000  0.00  0.00    +0.114 A 
ATOM     32  C   UNL     1     -13.365   2.350   0.000  0.00  0.00    +0.021 A 
ATOM     33  C   UNL     1     -14.664   3.100   0.000  0.00  0.00    +0.024 A 
ENDROOT
BRANCH  13  14
ATOM     14  C   UNL     1     -12.066   0.101   0.000  0.00  0.00    +0.255 C 
ATOM     15  N   UNL     1     -10.767   0.851   0.000  0.00  0.00    -0.281 N 
ATOM     16  H   UNL     1     -10.767   1.835   0.000  0.00  0.00    +0.155 HD
ATOM     31  O   UNL     1     -12.066  -1.400   0.000  0.00  0.00    -0.270 OA
BRANCH  15  17
ATOM     17  C   UNL     1      -9.468   0.101   0.000  0.00  0.00    +0.034 A 
ATOM     18  C   UNL     1      -9.468  -1.400   0.000  0.00  0.00    +0.025 A 
ATOM     19  C   UNL     1      -8.169  -2.150   0.000  0.00  0.00    +0.025 A 
ATOM     20  C   UNL     1      -6.870  -1.400   0.000  0.00  0.00    +0.031 A 
ATOM     29  C   UNL     1      -6.870   0.101   0.000  0.00  0.00    +0.025 A 
ATOM     30  C   UNL     1      -8.169   0.851   0.000  0.00  0.00    +0.025 A 
BRANCH  20  21
ATOM     21  N   UNL     1      -5.571  -2.150   0.000  0.00  0.00    -0.314 N 
ATOM     22  H   UNL     1      -5.571  -3.134   0.000  0.00  0.00    +0.152 HD
BRANCH  21  23
ATOM     23  C   UNL     1      -4.272  -1.400   0.000  0.00  0.00    +0.034 A 
ATOM     24  C   UNL     1      -2.973  -2.150   0.000  0.00  0.00    +0.043 A 
ATOM     25  C   UNL     1      -1.674  -1.400   0.000  0.00  0.00    +0.112 A 
ATOM     26  N   UNL     1      -1.674   0.101   0.000  0.00  0.00    -0.263 NA
ATOM     27  C   UNL     1      -2.973   0.851   0.000  0.00  0.00    +0.112 A 
ATOM     28  C   UNL     1      -4.272   0.101   0.000  0.00  0.00    +0.043 A 
ENDBRANCH  21  23
ENDBRANCH  20  21
ENDBRANCH  15  17
ENDBRANCH  13  14
BRANCH   9  10
ATOM     10  N   UNL     1     -14.664  -1.400   0.000  0.00  0.00    +0.080 N 
ATOM     11  O   UNL     1     -15.964  -2.150   0.000  0.00  0.00    +0.041 OA
ATOM     12  O   UNL     1     -13.365  -2.150   0.000  0.00  0.00    -0.576 OA
ENDBRANCH   9  10
BRANCH   7   5
ATOM      5  N   UNL     1     -17.262   3.100   0.000  0.00  0.00    -0.314 N 
ATOM      6  H   UNL     1     -18.115   2.608   0.000  0.00  0.00    +0.152 HD
BRANCH   5   4
ATOM      1  N   UNL     1     -17.262   7.601   0.000  0.00  0.00    -0.255 NA
ATOM      2  C   UNL     1     -18.562   6.851   0.000  0.00  0.00    +0.073 A 
ATOM      3  C   UNL     1     -18.561   5.351   0.000  0.00  0.00    +0.028 A 
ATOM      4  C   UNL     1     -17.262   4.601   0.000  0.00  0.00    +0.042 A 
ATOM     34  C   UNL     1     -15.964   5.351   0.000  0.00  0.00    +0.043 A 
ATOM     35  C   UNL     1     -19.861   4.601   0.000  0.00  0.00    +0.096 A 
ATOM     36  C   UNL     1     -21.160   5.351   0.000  0.00  0.00    +0.274 A 
ATOM     40  C   UNL     1     -21.160   6.851   0.000  0.00  0.00    +0.086 A 
ATOM     41  C   UNL     1     -19.861   7.601   0.000  0.00  0.00    +0.035 A 
ATOM     42  C   UNL     1     -15.964   6.851   0.000  0.00  0.00    +0.113 A 
BRANCH  36  37
ATOM     37  N   UNL     1     -22.459   4.601   0.000  0.00  0.00    +0.080 N 
ATOM     38  O   UNL     1     -22.459   3.100   0.000  0.00  0.00    +0.041 OA
ATOM     39  O   UNL     1     -23.758   5.350   0.000  0.00  0.00    -0.576 OA
ENDBRANCH  36  37
ENDBRANCH   5   4
ENDBRANCH   7   5
TORSDOF 8