REMARK  Name = 204232
REMARK  6 active torsions:
REMARK  status: ('A' for Active; 'I' for Inactive)
REMARK    1  A    between atoms: C_3  and  N_28
REMARK    2  A    between atoms: C_5  and  N_9
REMARK    3  A    between atoms: C_7  and  C_10
REMARK    4  A    between atoms: C_14  and  C_16
REMARK    5  A    between atoms: N_18  and  C_19
REMARK    6  A    between atoms: C_21  and  N_25
REMARK                            x       y       z     vdW  Elec       q    Type
REMARK                         _______ _______ _______ _____ _____    ______ ____
ROOT
ATOM      7  C   UNL     1      -4.821  -8.149   0.000  0.00  0.00    +0.038 A 
ATOM      8  C   UNL     1      -4.821  -6.649   0.000  0.00  0.00    +0.026 A 
ATOM      9  C   UNL     1      -3.522  -5.899   0.000  0.00  0.00    +0.038 A 
ATOM     23  C   UNL     1      -2.223  -6.649   0.000  0.00  0.00    +0.013 A 
ATOM     24  C   UNL     1      -2.223  -8.149   0.000  0.00  0.00    +0.001 A 
ATOM     25  C   UNL     1      -3.522  -8.899   0.000  0.00  0.00    +0.013 A 
ENDROOT
BRANCH   7   6
ATOM      4  N   UNL     1      -7.419  -8.149   0.000  0.00  0.00    -0.281 N 
ATOM      5  H   UNL     1      -7.419  -7.165   0.000  0.00  0.00    +0.155 HD
ATOM      6  C   UNL     1      -6.120  -8.899   0.000  0.00  0.00    +0.248 C 
ATOM     26  O   UNL     1      -6.120 -10.400   0.000  0.00  0.00    -0.270 OA
BRANCH   4   3
ATOM      1  C   UNL     1     -11.316  -8.899   0.000  0.00  0.00    +0.008 A 
ATOM      2  C   UNL     1     -10.017  -8.149   0.000  0.00  0.00    +0.024 A 
ATOM      3  C   UNL     1      -8.718  -8.899   0.000  0.00  0.00    +0.040 A 
ATOM     27  C   UNL     1      -8.718 -10.400   0.000  0.00  0.00    +0.107 A 
ATOM     28  C   UNL     1     -10.017 -11.150   0.000  0.00  0.00    +0.275 A 
ATOM     32  C   UNL     1     -11.316 -10.400   0.000  0.00  0.00    +0.084 A 
BRANCH  28  29
ATOM     29  N   UNL     1     -10.017 -12.650   0.000  0.00  0.00    +0.080 N 
ATOM     30  O   UNL     1      -8.718 -13.400   0.000  0.00  0.00    +0.041 OA
ATOM     31  O   UNL     1     -11.316 -13.400   0.000  0.00  0.00    -0.576 OA
ENDBRANCH  28  29
ENDBRANCH   4   3
ENDBRANCH   7   6
BRANCH   9  10
ATOM     10  C   UNL     1      -3.522  -4.399   0.000  0.00  0.00    +0.248 C 
ATOM     11  N   UNL     1      -2.223  -3.650   0.000  0.00  0.00    -0.281 N 
ATOM     12  H   UNL     1      -2.223  -2.665   0.000  0.00  0.00    +0.155 HD
ATOM     22  O   UNL     1      -4.821  -3.650   0.000  0.00  0.00    -0.270 OA
BRANCH  11  13
ATOM     13  C   UNL     1      -0.924  -4.399   0.000  0.00  0.00    +0.040 A 
ATOM     14  C   UNL     1       0.375  -3.650   0.000  0.00  0.00    +0.024 A 
ATOM     15  C   UNL     1       1.674  -4.399   0.000  0.00  0.00    +0.008 A 
ATOM     16  C   UNL     1       1.674  -5.899   0.000  0.00  0.00    +0.084 A 
ATOM     17  C   UNL     1       0.375  -6.649   0.000  0.00  0.00    +0.275 A 
ATOM     21  C   UNL     1      -0.924  -5.899   0.000  0.00  0.00    +0.107 A 
BRANCH  17  18
ATOM     18  N   UNL     1       0.375  -8.149   0.000  0.00  0.00    +0.080 N 
ATOM     19  O   UNL     1       1.674  -8.899   0.000  0.00  0.00    +0.041 OA
ATOM     20  O   UNL     1      -0.924  -8.899   0.000  0.00  0.00    -0.576 OA
ENDBRANCH  17  18
ENDBRANCH  11  13
ENDBRANCH   9  10
TORSDOF 6