REMARK  Name = 7606
REMARK  1 active torsions:
REMARK  status: ('A' for Active; 'I' for Inactive)
REMARK    1  A    between atoms: C_2  and  N_13
REMARK                            x       y       z     vdW  Elec       q    Type
REMARK                         _______ _______ _______ _____ _____    ______ ____
ROOT
ATOM      1  C   UNL     1       1.888   0.429   0.000  0.00  0.00    +0.308 C 
ATOM      2  N   UNL     1       1.950  -1.070   0.000  0.00  0.00    -0.237 N 
ATOM      3  H   UNL     1       3.199  -1.900   0.000  0.00  0.00    +0.159 HD
ATOM      4  C   UNL     1       0.544  -1.592   0.000  0.00  0.00    +0.259 C 
ATOM      5  O   UNL     1       0.140  -3.037   0.000  0.00  0.00    -0.271 OA
ATOM      6  C   UNL     1      -0.388  -0.416   0.000  0.00  0.00    +0.251 C 
ATOM     14  N   UNL     1       0.443   0.833   0.000  0.00  0.00    -0.273 N 
ATOM     15  H   UNL     1      -0.080   2.239   0.000  0.00  0.00    +0.153 HD
ATOM     16  O   UNL     1       3.063   1.361   0.000  0.00  0.00    -0.252 OA
ENDROOT
BRANCH   6   7
ATOM      7  N   UNL     1      -1.886  -0.479   0.000  0.00  0.00    -0.273 N 
ATOM      8  H   UNL     1      -2.343  -1.351   0.000  0.00  0.00    +0.152 HD
ATOM      9  C   UNL     1      -2.690   0.788   0.000  0.00  0.00    +0.299 C 
ATOM     10  N   UNL     1      -4.188   0.726   0.000  0.00  0.00    -0.313 N 
ATOM     11  H   UNL     1      -4.645  -0.147   0.000  0.00  0.00    +0.146 HD
ATOM     12  H   UNL     1      -4.716   1.557   0.000  0.00  0.00    +0.146 HD
ATOM     13  O   UNL     1      -1.994   2.117   0.000  0.00  0.00    -0.253 OA
ENDBRANCH   6   7
TORSDOF 1