REMARK  Name = 76350
REMARK  12 active torsions:
REMARK  status: ('A' for Active; 'I' for Inactive)
REMARK    1  A    between atoms: N_2  and  C_18
REMARK    2  A    between atoms: C_14  and  C_22
REMARK    3  A    between atoms: C_16  and  N_23
REMARK    4  A    between atoms: C_18  and  C_19
REMARK    5  A    between atoms: C_18  and  C_22
REMARK    6  A    between atoms: C_19  and  O_21
REMARK    7  A    between atoms: N_23  and  C_24
REMARK    8  A    between atoms: N_23  and  C_29
REMARK    9  A    between atoms: C_24  and  C_25
REMARK   10  A    between atoms: C_25  and  O_26
REMARK   11  A    between atoms: O_27  and  C_28
REMARK   12  A    between atoms: C_28  and  C_29
REMARK                            x       y       z     vdW  Elec       q    Type
REMARK                         _______ _______ _______ _____ _____    ______ ____
ROOT
ATOM     12  C   UNL     1      -7.774   1.025   0.000  0.00  0.00    +0.197 C 
ENDROOT
BRANCH  12  11
ATOM      1  O   UNL     1      -9.693   3.665   0.000  0.00  0.00    -0.270 OA
ATOM      2  C   UNL     1     -10.156   2.238   0.000  0.00  0.00    +0.255 C 
ATOM      3  C   UNL     1     -11.583   1.775   0.000  0.00  0.00    +0.049 A 
ATOM      4  C   UNL     1     -12.882   2.525   0.000  0.00  0.00    +0.014 A 
ATOM      5  C   UNL     1     -14.181   1.775   0.000  0.00  0.00    +0.001 A 
ATOM      6  C   UNL     1     -14.181   0.275   0.000  0.00  0.00    +0.001 A 
ATOM      7  C   UNL     1     -12.882  -0.475   0.000  0.00  0.00    +0.014 A 
ATOM      8  C   UNL     1     -11.583   0.275   0.000  0.00  0.00    +0.049 A 
ATOM      9  C   UNL     1     -10.156  -0.189   0.000  0.00  0.00    +0.255 C 
ATOM     10  O   UNL     1      -9.693  -1.616   0.000  0.00  0.00    -0.270 OA
ATOM     11  N   UNL     1      -9.274   1.025   0.000  0.00  0.00    -0.220 N 
ENDBRANCH  12  11
BRANCH  12  29
ATOM     29  C   UNL     1      -7.024   2.324   0.000  0.00  0.00    +0.326 C 
ATOM     32  O   UNL     1      -5.524   2.324   0.000  0.00  0.00    -0.249 OA
BRANCH  29  30
ATOM     30  O   UNL     1      -7.774   3.623   0.000  0.00  0.00    -0.479 OA
ATOM     31  H   UNL     1      -7.306   4.434   0.000  0.00  0.00    +0.295 HD
ENDBRANCH  29  30
ENDBRANCH  12  29
BRANCH  12  13
ATOM     13  C   UNL     1      -7.024  -0.275   0.000  0.00  0.00    +0.071 C 
BRANCH  13  14
ATOM     14  C   UNL     1      -5.524  -0.275   0.000  0.00  0.00    -0.024 A 
ATOM     15  C   UNL     1      -4.774  -1.574   0.000  0.00  0.00    +0.033 A 
ATOM     25  C   UNL     1      -3.275  -1.574   0.000  0.00  0.00    +0.023 A 
ATOM     26  C   UNL     1      -2.525  -0.275   0.000  0.00  0.00    +0.002 A 
ATOM     27  C   UNL     1      -3.275   1.025   0.000  0.00  0.00    +0.000 A 
ATOM     28  C   UNL     1      -4.774   1.025   0.000  0.00  0.00    +0.005 A 
BRANCH  15  16
ATOM     16  N   UNL     1      -5.524  -2.873   0.000  0.00  0.00    -0.325 N 
BRANCH  16  17
ATOM     17  C   UNL     1      -4.774  -4.172   0.000  0.00  0.00    +0.133 C 
BRANCH  17  18
ATOM     18  C   UNL     1      -5.524  -5.471   0.000  0.00  0.00    +0.174 C 
BRANCH  18  19
ATOM     19  O   UNL     1      -4.774  -6.770   0.000  0.00  0.00    -0.393 OA
ATOM     20  H   UNL     1      -5.259  -7.610   0.000  0.00  0.00    +0.209 HD
ENDBRANCH  18  19
ENDBRANCH  17  18
ENDBRANCH  16  17
BRANCH  16  21
ATOM     21  C   UNL     1      -7.024  -2.873   0.000  0.00  0.00    +0.133 C 
BRANCH  21  22
ATOM     22  C   UNL     1      -7.774  -4.172   0.000  0.00  0.00    +0.174 C 
BRANCH  22  23
ATOM     23  O   UNL     1      -9.274  -4.172   0.000  0.00  0.00    -0.393 OA
ATOM     24  H   UNL     1      -9.760  -3.332   0.000  0.00  0.00    +0.209 HD
ENDBRANCH  22  23
ENDBRANCH  21  22
ENDBRANCH  16  21
ENDBRANCH  15  16
ENDBRANCH  13  14
ENDBRANCH  12  13
TORSDOF 12