REMARK  Name = 75585
REMARK  2 active torsions:
REMARK  status: ('A' for Active; 'I' for Inactive)
REMARK    1  A    between atoms: C_4  and  C_13
REMARK    2  A    between atoms: C_9  and  C_13
REMARK                            x       y       z     vdW  Elec       q    Type
REMARK                         _______ _______ _______ _____ _____    ______ ____
ROOT
ATOM      7  C   UNL     1      -4.647  -2.250   0.000  0.00  0.00    +0.209 C 
ATOM      8  O   UNL     1      -4.647  -0.750   0.000  0.00  0.00    -0.285 OA
ENDROOT
BRANCH   7   6
ATOM      1  H   UNL     1      -7.628  -0.923   0.000  0.00  0.00    +0.165 HD
ATOM      2  N   UNL     1      -7.316  -2.390   0.000  0.00  0.00    -0.358 N 
ATOM      3  C   UNL     1      -8.320  -3.505   0.000  0.00  0.00    +0.083 A 
ATOM      4  C   UNL     1      -7.570  -4.804   0.000  0.00  0.00    +0.020 A 
ATOM      5  C   UNL     1      -6.103  -4.492   0.000  0.00  0.00    +0.031 A 
ATOM      6  C   UNL     1      -5.946  -3.000   0.000  0.00  0.00    +0.087 A 
ENDBRANCH   7   6
BRANCH   7   9
ATOM      9  C   UNL     1      -3.348  -3.000   0.000  0.00  0.00    +0.024 A 
ATOM     10  C   UNL     1      -3.348  -4.500   0.000  0.00  0.00    +0.012 A 
ATOM     11  C   UNL     1      -2.049  -5.250   0.000  0.00  0.00    +0.001 A 
ATOM     12  C   UNL     1      -0.750  -4.500   0.000  0.00  0.00    +0.000 A 
ATOM     13  C   UNL     1      -0.750  -3.000   0.000  0.00  0.00    +0.001 A 
ATOM     14  C   UNL     1      -2.049  -2.250   0.000  0.00  0.00    +0.012 A 
ENDBRANCH   7   9
TORSDOF 2