REMARK  Name = 7218
REMARK  4 active torsions:
REMARK  status: ('A' for Active; 'I' for Inactive)
REMARK    1  A    between atoms: C_8  and  N_18
REMARK    2  A    between atoms: C_11  and  N_14
REMARK    3  A    between atoms: C_19  and  C_21
REMARK    4  A    between atoms: C_22  and  C_24
REMARK                            x       y       z     vdW  Elec       q    Type
REMARK                         _______ _______ _______ _____ _____    ______ ____
ROOT
ATOM      1  C   UNL     1      -5.946  -0.750   0.000  0.00  0.00    +0.012 A 
ATOM      2  C   UNL     1      -7.245  -1.500   0.000  0.00  0.00    +0.001 A 
ATOM      3  C   UNL     1      -7.245  -3.000   0.000  0.00  0.00    +0.073 A 
ATOM      4  C   UNL     1      -5.946  -3.750   0.000  0.00  0.00    +0.051 A 
ATOM      5  C   UNL     1      -4.647  -3.000   0.000  0.00  0.00    +0.035 A 
ATOM     11  N   UNL     1      -8.544  -3.750   0.000  0.00  0.00    -0.247 NA
ATOM     12  C   UNL     1      -9.843  -3.000   0.000  0.00  0.00    +0.073 A 
ATOM     13  C   UNL     1     -11.142  -3.750   0.000  0.00  0.00    +0.051 A 
ATOM     14  C   UNL     1     -12.441  -3.000   0.000  0.00  0.00    +0.035 A 
ATOM     20  C   UNL     1     -12.441  -1.500   0.000  0.00  0.00    +0.024 A 
ATOM     21  C   UNL     1     -11.142  -0.750   0.000  0.00  0.00    +0.012 A 
ATOM     22  C   UNL     1      -9.843  -1.500   0.000  0.00  0.00    +0.001 A 
ATOM     23  C   UNL     1      -8.544  -0.750   0.000  0.00  0.00    +0.020 A 
ATOM     24  C   UNL     1      -4.647  -1.500   0.000  0.00  0.00    +0.024 A 
ENDROOT
BRANCH   5   6
ATOM      6  N   UNL     1      -3.348  -3.750   0.000  0.00  0.00    -0.286 N 
ATOM      7  C   UNL     1      -2.049  -3.000   0.000  0.00  0.00    +0.214 C 
ATOM      8  C   UNL     1      -0.750  -3.750   0.000  0.00  0.00    +0.109 C 
ATOM      9  O   UNL     1      -2.049  -1.500   0.000  0.00  0.00    -0.276 OA
ATOM     10  H   UNL     1      -3.348  -5.250   0.000  0.00  0.00    +0.155 HD
ENDBRANCH   5   6
BRANCH  14  15
ATOM     15  N   UNL     1     -13.740  -3.750   0.000  0.00  0.00    -0.286 N 
ATOM     16  C   UNL     1     -15.039  -3.000   0.000  0.00  0.00    +0.214 C 
ATOM     17  C   UNL     1     -16.339  -3.750   0.000  0.00  0.00    +0.109 C 
ATOM     18  O   UNL     1     -15.039  -1.500   0.000  0.00  0.00    -0.276 OA
ATOM     19  H   UNL     1     -13.740  -5.250   0.000  0.00  0.00    +0.155 HD
ENDBRANCH  14  15
TORSDOF 2