REMARK  Name = 71097
REMARK  4 active torsions:
REMARK  status: ('A' for Active; 'I' for Inactive)
REMARK    1  A    between atoms: C_3  and  O_22
REMARK    2  A    between atoms: C_4  and  C_20
REMARK    3  A    between atoms: C_15  and  C_18
REMARK    4  A    between atoms: C_19  and  C_20
REMARK                            x       y       z     vdW  Elec       q    Type
REMARK                         _______ _______ _______ _____ _____    ______ ____
ROOT
ATOM     11  C   UNL     1      -8.819   3.275   0.000  0.00  0.00    +0.031 C 
ATOM     12  C   UNL     1      -7.520   2.525   0.000  0.00  0.00    +0.053 C 
ENDROOT
BRANCH  11  10
ATOM      1  N   UNL     1      -7.520   5.524   0.000  0.00  0.00    -0.247 NA
ATOM      2  C   UNL     1      -7.520   7.024   0.000  0.00  0.00    +0.072 A 
ATOM      3  C   UNL     1      -8.819   7.774   0.000  0.00  0.00    +0.000 A 
ATOM      4  C   UNL     1      -8.819   9.274   0.000  0.00  0.00    +0.010 A 
ATOM      5  C   UNL     1      -7.520  10.025   0.000  0.00  0.00    +0.001 A 
ATOM      6  C   UNL     1      -6.221   9.274   0.000  0.00  0.00    +0.002 A 
ATOM      7  C   UNL     1     -10.118   7.024   0.000  0.00  0.00    +0.012 A 
ATOM      8  C   UNL     1     -10.118   5.524   0.000  0.00  0.00    +0.028 A 
ATOM      9  C   UNL     1      -6.221   7.774   0.000  0.00  0.00    +0.028 A 
ATOM     10  C   UNL     1      -8.819   4.774   0.000  0.00  0.00    +0.065 A 
ENDBRANCH  11  10
BRANCH  12  13
ATOM     13  C   UNL     1      -6.221   3.275   0.000  0.00  0.00    +0.190 C 
ATOM     14  O   UNL     1      -6.221   4.774   0.000  0.00  0.00    -0.287 OA
BRANCH  13  15
ATOM     15  C   UNL     1      -4.922   2.525   0.000  0.00  0.00    +0.064 A 
ATOM     16  C   UNL     1      -4.922   1.025   0.000  0.00  0.00    +0.035 A 
ATOM     17  C   UNL     1      -3.623   0.275   0.000  0.00  0.00    +0.042 A 
ATOM     18  C   UNL     1      -2.324   1.025   0.000  0.00  0.00    +0.023 A 
ATOM     19  C   UNL     1      -2.324   2.525   0.000  0.00  0.00    +0.047 A 
ATOM     20 CL   UNL     1      -3.623  -1.226   0.000  0.00  0.00    -0.084 Cl
ATOM     21  C   UNL     1      -3.623   3.275   0.000  0.00  0.00    +0.128 A 
BRANCH  21  22
ATOM     22  O   UNL     1      -3.623   4.774   0.000  0.00  0.00    -0.506 OA
ATOM     23  H   UNL     1      -2.811   5.243   0.000  0.00  0.00    +0.292 HD
ENDBRANCH  21  22
ENDBRANCH  13  15
ENDBRANCH  12  13
TORSDOF 4