REMARK  Name = 7419
REMARK  8 active torsions:
REMARK  status: ('A' for Active; 'I' for Inactive)
REMARK    1  A    between atoms: C_10  and  C_12
REMARK    2  A    between atoms: N_14  and  C_15
REMARK    3  A    between atoms: C_15  and  C_16
REMARK    4  A    between atoms: C_16  and  N_17
REMARK    5  A    between atoms: N_17  and  C_18
REMARK    6  A    between atoms: N_17  and  C_20
REMARK    7  A    between atoms: C_18  and  C_19
REMARK    8  A    between atoms: C_20  and  C_21
REMARK                            x       y       z     vdW  Elec       q    Type
REMARK                         _______ _______ _______ _____ _____    ______ ____
ROOT
ATOM      1 CL   UNL     1      -8.262  -2.315   0.000  0.00  0.00    -0.080 Cl
ATOM      2  C   UNL     1      -6.835  -2.779   0.000  0.00  0.00    +0.080 C 
ATOM      3  C   UNL     1      -6.372  -4.205   0.000  0.00  0.00    +0.080 C 
ATOM      4  C   UNL     1      -4.872  -4.205   0.000  0.00  0.00    +0.071 C 
ATOM      5  C   UNL     1      -4.408  -2.779   0.000  0.00  0.00    +0.038 C 
ATOM      6  C   UNL     1      -2.982  -2.315   0.000  0.00  0.00    +0.112 C 
ATOM     18 CL   UNL     1      -1.867  -3.319   0.000  0.00  0.00    -0.077 Cl
ATOM     19 CL   UNL     1      -3.990  -5.419   0.000  0.00  0.00    -0.081 Cl
ATOM     20 CL   UNL     1      -7.253  -5.419   0.000  0.00  0.00    -0.080 Cl
ATOM     21  C   UNL     1      -5.622  -1.897   0.000  0.00  0.00    +0.071 C 
ATOM     22 CL   UNL     1      -5.622  -0.397   0.000  0.00  0.00    -0.081 Cl
ENDROOT
BRANCH   6   7
ATOM      7  C   UNL     1      -2.670  -0.848   0.000  0.00  0.00    +0.256 C 
ATOM      8  N   UNL     1      -1.243  -0.385   0.000  0.00  0.00    -0.309 N 
ATOM      9  H   UNL     1      -1.039   0.578   0.000  0.00  0.00    +0.149 HD
ATOM     17  O   UNL     1      -3.785   0.156   0.000  0.00  0.00    -0.269 OA
BRANCH   8  10
ATOM     10  C   UNL     1      -0.129  -1.388   0.000  0.00  0.00    +0.120 C 
BRANCH  10  11
ATOM     11  C   UNL     1       1.298  -0.925   0.000  0.00  0.00    +0.103 C 
BRANCH  11  12
ATOM     12  N   UNL     1       2.413  -1.929   0.000  0.00  0.00    -0.301 NA
BRANCH  12  13
ATOM     13  C   UNL     1       2.101  -3.396   0.000  0.00  0.00    +0.081 C 
ATOM     14  C   UNL     1       3.216  -4.399   0.000  0.00  0.00    +0.020 C 
ENDBRANCH  12  13
BRANCH  12  15
ATOM     15  C   UNL     1       3.839  -1.465   0.000  0.00  0.00    +0.081 C 
ATOM     16  C   UNL     1       4.954  -2.469   0.000  0.00  0.00    +0.020 C 
ENDBRANCH  12  15
ENDBRANCH  11  12
ENDBRANCH  10  11
ENDBRANCH   8  10
ENDBRANCH   6   7
TORSDOF 6