REMARK  Name = 71866
REMARK  3 active torsions:
REMARK  status: ('A' for Active; 'I' for Inactive)
REMARK    1  A    between atoms: C_4  and  C_15
REMARK    2  A    between atoms: C_5  and  N_18
REMARK    3  A    between atoms: C_8  and  N_18
REMARK                            x       y       z     vdW  Elec       q    Type
REMARK                         _______ _______ _______ _____ _____    ______ ____
ROOT
ATOM      1  N   UNL     1      -1.574   3.275   0.000  0.00  0.00    -0.199 NA
ATOM      2  C   UNL     1      -0.275   2.525   0.000  0.00  0.00    +0.216 A 
ATOM      3  N   UNL     1      -0.275   1.025   0.000  0.00  0.00    -0.327 N 
ATOM      4  H   UNL     1       0.578   0.532   0.000  0.00  0.00    +0.145 HD
ATOM      5  H   UNL     1      -1.127   0.532   0.000  0.00  0.00    +0.145 HD
ATOM      6  N   UNL     1       1.025   3.275   0.000  0.00  0.00    -0.198 NA
ATOM      7  C   UNL     1       1.025   4.774   0.000  0.00  0.00    +0.147 A 
ATOM     17  C   UNL     1      -0.275   5.524   0.000  0.00  0.00    +0.131 A 
ATOM     20  C   UNL     1      -1.574   4.774   0.000  0.00  0.00    +0.141 A 
ATOM     21  N   UNL     1      -2.873   5.524   0.000  0.00  0.00    -0.342 N 
ATOM     22  H   UNL     1      -3.725   5.032   0.000  0.00  0.00    +0.144 HD
ATOM     23  H   UNL     1      -2.873   6.509   0.000  0.00  0.00    +0.144 HD
ENDROOT
BRANCH   7   8
ATOM      8  N   UNL     1       2.324   5.524   0.000  0.00  0.00    -0.298 N 
ATOM      9  H   UNL     1       3.176   5.032   0.000  0.00  0.00    +0.154 HD
BRANCH   8  10
ATOM     10  C   UNL     1       2.324   7.024   0.000  0.00  0.00    +0.032 A 
ATOM     11  C   UNL     1       3.623   7.774   0.000  0.00  0.00    +0.024 A 
ATOM     12  C   UNL     1       3.623   9.274   0.000  0.00  0.00    +0.017 A 
ATOM     13  C   UNL     1       2.324  10.025   0.000  0.00  0.00    +0.018 A 
ATOM     14  C   UNL     1       1.025   9.274   0.000  0.00  0.00    +0.017 A 
ATOM     15 BR   UNL     1       2.324  11.525   0.000  0.00  0.00    -0.050 Br
ATOM     16  C   UNL     1       1.025   7.774   0.000  0.00  0.00    +0.024 A 
ENDBRANCH   8  10
ENDBRANCH   7   8
BRANCH  17  18
ATOM     18  C   UNL     1      -0.275   7.024   0.000  0.00  0.00    +0.106 C 
ATOM     19  N   UNL     1      -0.275   8.524   0.000  0.00  0.00    -0.191 NA
ENDBRANCH  17  18
TORSDOF 3