REMARK  Name = 7572
REMARK  6 active torsions:
REMARK  status: ('A' for Active; 'I' for Inactive)
REMARK    1  A    between atoms: C_3  and  N_18
REMARK    2  A    between atoms: C_4  and  C_19
REMARK    3  A    between atoms: C_9  and  N_18
REMARK    4  A    between atoms: C_10  and  S_14
REMARK    5  A    between atoms: C_11  and  N_13
REMARK    6  A    between atoms: S_14  and  O_17
REMARK                            x       y       z     vdW  Elec       q    Type
REMARK                         _______ _______ _______ _____ _____    ______ ____
ROOT
ATOM      5  C   UNL     1      -1.574   6.274   0.000  0.00  0.00    +0.059 A 
ATOM      6  C   UNL     1      -1.574   4.774   0.000  0.00  0.00    +0.140 A 
ATOM     12  C   UNL     1      -2.873   4.024   0.000  0.00  0.00    +0.054 A 
ATOM     13  C   UNL     1      -4.172   4.774   0.000  0.00  0.00    +0.027 A 
ATOM     17  C   UNL     1      -4.172   6.274   0.000  0.00  0.00    +0.024 A 
ATOM     18  C   UNL     1      -2.873   7.024   0.000  0.00  0.00    +0.027 A 
ENDROOT
BRANCH   6   7
ATOM      7  S   UNL     1      -0.275   4.024   0.000  0.00  0.00    +0.111 S 
ATOM     10  O   UNL     1       0.475   5.324   0.000  0.00  0.00    -0.142 OA
ATOM     11  O   UNL     1      -1.025   2.725   0.000  0.00  0.00    -0.142 OA
BRANCH   7   8
ATOM      8  O   UNL     1       1.025   3.275   0.000  0.00  0.00    -0.250 OA
ATOM      9  H   UNL     1       1.024   2.305   0.000  0.00  0.00    +0.245 HD
ENDBRANCH   7   8
ENDBRANCH   6   7
BRANCH  13  14
ATOM     14  N   UNL     1      -5.471   4.024   0.000  0.00  0.00    -0.358 N 
ATOM     15  H   UNL     1      -5.471   3.040   0.000  0.00  0.00    +0.142 HD
ATOM     16  H   UNL     1      -6.323   4.517   0.000  0.00  0.00    +0.142 HD
ENDBRANCH  13  14
BRANCH   5   3
ATOM      3  N   UNL     1      -0.275   7.024   0.000  0.00  0.00    -0.313 N 
ATOM      4  H   UNL     1       0.578   6.532   0.000  0.00  0.00    +0.152 HD
BRANCH   3   2
ATOM      1  C   UNL     1      -1.574   9.274   0.000  0.00  0.00    +0.023 A 
ATOM      2  C   UNL     1      -0.275   8.524   0.000  0.00  0.00    +0.031 A 
ATOM     19  C   UNL     1       1.025   9.274   0.000  0.00  0.00    +0.023 A 
ATOM     20  C   UNL     1       1.025  10.775   0.000  0.00  0.00    +0.005 A 
ATOM     21  C   UNL     1      -0.275  11.525   0.000  0.00  0.00    -0.050 A 
ATOM     22  C   UNL     1      -0.275  13.025   0.000  0.00  0.00    +0.044 C 
ATOM     23  C   UNL     1      -1.574  10.775   0.000  0.00  0.00    +0.005 A 
ENDBRANCH   3   2
ENDBRANCH   5   3
TORSDOF 5