REMARK  Name = 79253
REMARK  5 active torsions:
REMARK  status: ('A' for Active; 'I' for Inactive)
REMARK    1  A    between atoms: C_3  and  O_17
REMARK    2  A    between atoms: C_4  and  N_18
REMARK    3  A    between atoms: C_8  and  N_14
REMARK    4  A    between atoms: C_11  and  O_13
REMARK    5  A    between atoms: C_15  and  O_17
REMARK                            x       y       z     vdW  Elec       q    Type
REMARK                         _______ _______ _______ _____ _____    ______ ____
ROOT
ATOM      4  C   UNL     1       5.571  -0.851   0.000  0.00  0.00    +0.410 C 
ATOM      5  O   UNL     1       5.571  -2.350   0.000  0.00  0.00    -0.226 OA
ATOM      6  N   UNL     1       4.272  -0.101   0.000  0.00  0.00    -0.251 N 
ATOM      7  H   UNL     1       3.420  -0.593   0.000  0.00  0.00    +0.158 HD
ENDROOT
BRANCH   6   8
ATOM      8  C   UNL     1       4.272   1.400   0.000  0.00  0.00    +0.037 A 
ATOM      9  C   UNL     1       2.973   2.150   0.000  0.00  0.00    +0.027 A 
ATOM     10  C   UNL     1       2.973   3.650   0.000  0.00  0.00    +0.047 A 
ATOM     11  C   UNL     1       4.272   4.399   0.000  0.00  0.00    +0.117 A 
ATOM     14  C   UNL     1       5.571   3.650   0.000  0.00  0.00    +0.047 A 
ATOM     15  C   UNL     1       5.571   2.150   0.000  0.00  0.00    +0.027 A 
BRANCH  11  12
ATOM     12  O   UNL     1       4.272   5.899   0.000  0.00  0.00    -0.507 OA
ATOM     13  H   UNL     1       5.084   6.368   0.000  0.00  0.00    +0.292 HD
ENDBRANCH  11  12
ENDBRANCH   6   8
BRANCH   4   3
ATOM      3  O   UNL     1       6.870  -0.101   0.000  0.00  0.00    -0.411 OA
BRANCH   3   2
ATOM      1  C   UNL     1       9.468  -0.101   0.000  0.00  0.00    +0.048 A 
ATOM      2  C   UNL     1       8.169  -0.851   0.000  0.00  0.00    +0.133 A 
ATOM     16  C   UNL     1       8.169  -2.350   0.000  0.00  0.00    +0.048 A 
ATOM     17  C   UNL     1       9.468  -3.100   0.000  0.00  0.00    +0.026 A 
ATOM     18  C   UNL     1      10.767  -2.350   0.000  0.00  0.00    +0.025 A 
ATOM     22  C   UNL     1      10.767  -0.851   0.000  0.00  0.00    +0.026 A 
BRANCH  18  19
ATOM     19  N   UNL     1      12.066  -3.100   0.000  0.00  0.00    -0.358 N 
ATOM     20  H   UNL     1      12.919  -2.608   0.000  0.00  0.00    +0.142 HD
ATOM     21  H   UNL     1      12.066  -4.085   0.000  0.00  0.00    +0.142 HD
ENDBRANCH  18  19
ENDBRANCH   3   2
ENDBRANCH   4   3
TORSDOF 5