REMARK  Name = 73053
REMARK  8 active torsions:
REMARK  status: ('A' for Active; 'I' for Inactive)
REMARK    1  A    between atoms: C_6  and  C_25
REMARK    2  A    between atoms: C_7  and  C_26
REMARK    3  A    between atoms: C_10  and  O_21
REMARK    4  A    between atoms: C_12  and  O_23
REMARK    5  A    between atoms: S_16  and  O_18
REMARK    6  A    between atoms: S_16  and  O_20
REMARK    7  A    between atoms: O_21  and  C_22
REMARK    8  A    between atoms: O_23  and  C_24
REMARK                            x       y       z     vdW  Elec       q    Type
REMARK                         _______ _______ _______ _____ _____    ______ ____
ROOT
ATOM      1  S   UNL     1      -1.280 -10.837   0.000  0.00  0.00    +0.205 S 
ATOM      4  O   UNL     1      -0.530  -9.538   0.000  0.00  0.00    -0.118 OA
ATOM      7  O   UNL     1      -2.030 -12.136   0.000  0.00  0.00    -0.118 OA
ENDROOT
BRANCH   1   2
ATOM      2  O   UNL     1      -2.579 -10.087   0.000  0.00  0.00    -0.231 OA
ATOM      3  H   UNL     1      -2.579  -9.117   0.000  0.00  0.00    +0.247 HD
ENDBRANCH   1   2
BRANCH   1   5
ATOM      5  O   UNL     1       0.019 -11.587   0.000  0.00  0.00    -0.231 OA
ATOM      6  H   UNL     1       0.019 -12.557   0.000  0.00  0.00    +0.247 HD
ENDBRANCH   1   5
TORSDOF 2