REMARK  Name = 75071
REMARK  1 active torsions:
REMARK  status: ('A' for Active; 'I' for Inactive)
REMARK    1  A    between atoms: C_2  and  O_8
REMARK                            x       y       z     vdW  Elec       q    Type
REMARK                         _______ _______ _______ _____ _____    ______ ____
ROOT
ATOM      1  C   UNL     1      -3.522  -2.900   0.000  0.00  0.00    +0.071 A 
ATOM      2  C   UNL     1      -3.522  -4.399   0.000  0.00  0.00    +0.232 A 
ATOM      5  N   UNL     1      -2.223  -5.149   0.000  0.00  0.00    -0.110 NA
ATOM      6  N   UNL     1      -0.924  -4.399   0.000  0.00  0.00    -0.134 NA
ATOM      7  C   UNL     1      -0.924  -2.900   0.000  0.00  0.00    +0.152 A 
ATOM      8 CL   UNL     1       0.375  -2.150   0.000  0.00  0.00    -0.060 Cl
ATOM      9  C   UNL     1      -2.223  -2.150   0.000  0.00  0.00    +0.047 A 
ENDROOT
BRANCH   2   3
ATOM      3  O   UNL     1      -4.821  -5.149   0.000  0.00  0.00    -0.491 OA
ATOM      4  H   UNL     1      -5.633  -4.681   0.000  0.00  0.00    +0.294 HD
ENDBRANCH   2   3
TORSDOF 1