REMARK  Name = 727038
REMARK  9 active torsions:
REMARK  status: ('A' for Active; 'I' for Inactive)
REMARK    1  A    between atoms: C_1  and  C_25
REMARK    2  A    between atoms: C_3  and  C_31
REMARK    3  A    between atoms: C_3  and  C_32
REMARK    4  A    between atoms: C_5  and  C_38
REMARK    5  A    between atoms: C_9  and  C_33
REMARK    6  A    between atoms: C_11  and  C_30
REMARK    7  A    between atoms: C_17  and  C_23
REMARK    8  A    between atoms: C_21  and  C_34
REMARK    9  A    between atoms: C_21  and  C_35
REMARK                            x       y       z     vdW  Elec       q    Type
REMARK                         _______ _______ _______ _____ _____    ______ ____
ROOT
ATOM      1  C   UNL     1      -0.375   6.649   0.000  0.00  0.00    +0.092 C 
ATOM      4  C   UNL     1       0.924   7.399   0.000  0.00  0.00    +0.006 C 
ATOM      5  C   UNL     1       2.223   6.649   0.000  0.00  0.00    +0.013 C 
ATOM      6  C   UNL     1       2.223   8.149   0.000  0.00  0.00    +0.020 C 
ATOM      7  C   UNL     1       3.522   7.399   0.000  0.00  0.00    -0.050 C 
ATOM      8  C   UNL     1       3.522   8.899   0.000  0.00  0.00    +0.047 C 
ATOM      9  C   UNL     1       4.821   9.649   0.000  0.00  0.00    +0.160 C 
ATOM     10  O   UNL     1       4.821  11.150   0.000  0.00  0.00    -0.292 OA
ATOM     11  C   UNL     1       6.120   8.899   0.000  0.00  0.00    +0.070 C 
ATOM     12  C   UNL     1       7.419   9.649   0.000  0.00  0.00    +0.016 C 
ATOM     13  C   UNL     1       7.419  11.150   0.000  0.00  0.00    +0.011 C 
ATOM     14  C   UNL     1       8.718  11.900   0.000  0.00  0.00    -0.035 C 
ATOM     15  C   UNL     1       9.682  13.049   0.000  0.00  0.00    +0.011 C 
ATOM     16  C   UNL     1       7.754  13.049   0.000  0.00  0.00    +0.011 C 
ATOM     17  C   UNL     1      10.017  11.150   0.000  0.00  0.00    +0.007 C 
ATOM     18  C   UNL     1      10.017   9.649   0.000  0.00  0.00    +0.017 C 
ATOM     19  C   UNL     1       8.718   8.899   0.000  0.00  0.00    +0.053 C 
ATOM     27  C   UNL     1       8.718   7.399   0.000  0.00  0.00    +0.017 C 
ATOM     28  C   UNL     1       7.419   6.649   0.000  0.00  0.00    +0.009 C 
ATOM     29  C   UNL     1       6.120   7.399   0.000  0.00  0.00    -0.013 C 
ATOM     30  C   UNL     1       6.120   5.899   0.000  0.00  0.00    +0.013 C 
ATOM     31  C   UNL     1       4.821   6.649   0.000  0.00  0.00    -0.004 C 
ATOM     32  C   UNL     1       4.821   8.149   0.000  0.00  0.00    +0.016 C 
ATOM     33  C   UNL     1       4.821   5.149   0.000  0.00  0.00    +0.012 C 
ATOM     34  C   UNL     1       3.522   4.399   0.000  0.00  0.00    +0.006 C 
ATOM     35  C   UNL     1       2.223   5.149   0.000  0.00  0.00    +0.016 C 
ATOM     36  C   UNL     1       0.924   4.399   0.000  0.00  0.00    +0.033 C 
ATOM     37  C   UNL     1       1.888   3.250   0.000  0.00  0.00    +0.019 C 
ATOM     38  C   UNL     1      -0.040   3.250   0.000  0.00  0.00    +0.019 C 
ATOM     39  C   UNL     1      -0.375   5.149   0.000  0.00  0.00    +0.179 C 
ATOM     40  O   UNL     1      -1.674   4.399   0.000  0.00  0.00    -0.291 OA
ENDROOT
BRANCH  19  20
ATOM     20  C   UNL     1      10.017   8.149   0.000  0.00  0.00    +0.239 C 
ATOM     21  N   UNL     1      11.316   8.899   0.000  0.00  0.00    -0.276 N 
ATOM     22  C   UNL     1      11.473  10.391   0.000  0.00  0.00    +0.206 A 
ATOM     23  N   UNL     1      12.940  10.703   0.000  0.00  0.00    -0.244 NA
ATOM     24  C   UNL     1      13.690   9.404   0.000  0.00  0.00    +0.130 A 
ATOM     25  C   UNL     1      12.687   8.289   0.000  0.00  0.00    +0.115 A 
ATOM     26  O   UNL     1      10.017   6.649   0.000  0.00  0.00    -0.272 OA
ENDBRANCH  19  20
BRANCH   1   2
ATOM      2  C   UNL     1      -1.674   7.399   0.000  0.00  0.00    +0.102 C 
ATOM      3  N   UNL     1      -2.973   8.149   0.000  0.00  0.00    -0.191 NA
ENDBRANCH   1   2
TORSDOF 2