REMARK  Name = 76988
REMARK  6 active torsions:
REMARK  status: ('A' for Active; 'I' for Inactive)
REMARK    1  A    between atoms: C_3  and  O_22
REMARK    2  A    between atoms: C_5  and  O_18
REMARK    3  A    between atoms: C_7  and  O_19
REMARK    4  A    between atoms: C_11  and  C_14
REMARK    5  A    between atoms: C_12  and  O_20
REMARK    6  A    between atoms: C_17  and  O_21
REMARK                            x       y       z     vdW  Elec       q    Type
REMARK                         _______ _______ _______ _____ _____    ______ ____
ROOT
ATOM      1  O   UNL     1      -4.821 -11.150   0.000  0.00  0.00    -0.287 OA
ATOM      2  C   UNL     1      -4.821  -9.649   0.000  0.00  0.00    +0.197 A 
ATOM      3  C   UNL     1      -3.522  -8.899   0.000  0.00  0.00    +0.098 A 
ATOM      4  C   UNL     1      -3.522  -7.399   0.000  0.00  0.00    +0.139 A 
ATOM     13  O   UNL     1      -4.821  -6.649   0.000  0.00  0.00    -0.451 OA
ATOM     14  C   UNL     1      -6.120  -7.399   0.000  0.00  0.00    +0.188 A 
ATOM     15  C   UNL     1      -7.419  -6.649   0.000  0.00  0.00    +0.206 A 
ATOM     18  C   UNL     1      -8.718  -7.399   0.000  0.00  0.00    +0.208 A 
ATOM     21  C   UNL     1      -8.718  -8.899   0.000  0.00  0.00    +0.205 A 
ATOM     24  C   UNL     1      -7.419  -9.649   0.000  0.00  0.00    +0.177 A 
ATOM     27  C   UNL     1      -6.120  -8.899   0.000  0.00  0.00    +0.113 A 
ENDROOT
BRANCH   4   5
ATOM      5  C   UNL     1      -2.223  -6.649   0.000  0.00  0.00    +0.018 A 
ATOM      6  C   UNL     1      -0.924  -7.399   0.000  0.00  0.00    +0.015 A 
ATOM      7  C   UNL     1       0.375  -6.649   0.000  0.00  0.00    +0.046 A 
ATOM      8  C   UNL     1       0.375  -5.149   0.000  0.00  0.00    +0.117 A 
ATOM     11  C   UNL     1      -0.924  -4.399   0.000  0.00  0.00    +0.046 A 
ATOM     12  C   UNL     1      -2.223  -5.149   0.000  0.00  0.00    +0.015 A 
BRANCH   8   9
ATOM      9  O   UNL     1       1.674  -4.399   0.000  0.00  0.00    -0.507 OA
ATOM     10  H   UNL     1       2.485  -4.868   0.000  0.00  0.00    +0.292 HD
ENDBRANCH   8   9
ENDBRANCH   4   5
BRANCH  15  16
ATOM     16  O   UNL     1      -7.419  -5.149   0.000  0.00  0.00    -0.501 OA
ATOM     17  H   UNL     1      -6.608  -4.681   0.000  0.00  0.00    +0.292 HD
ENDBRANCH  15  16
BRANCH  18  19
ATOM     19  O   UNL     1     -10.017  -6.649   0.000  0.00  0.00    -0.501 OA
ATOM     20  H   UNL     1     -10.017  -5.713   0.000  0.00  0.00    +0.292 HD
ENDBRANCH  18  19
BRANCH  21  22
ATOM     22  O   UNL     1     -10.017  -9.649   0.000  0.00  0.00    -0.501 OA
ATOM     23  H   UNL     1     -10.829  -9.181   0.000  0.00  0.00    +0.292 HD
ENDBRANCH  21  22
BRANCH  24  25
ATOM     25  O   UNL     1      -7.419 -11.150   0.000  0.00  0.00    -0.503 OA
ATOM     26  H   UNL     1      -8.231 -11.618   0.000  0.00  0.00    +0.292 HD
ENDBRANCH  24  25
TORSDOF 6