REMARK  Name = 78623
REMARK  7 active torsions:
REMARK  status: ('A' for Active; 'I' for Inactive)
REMARK    1  A    between atoms: N_2  and  C_13
REMARK    2  A    between atoms: C_9  and  O_12
REMARK    3  A    between atoms: C_13  and  C_14
REMARK    4  A    between atoms: C_13  and  C_17
REMARK    5  A    between atoms: C_14  and  O_16
REMARK    6  A    between atoms: C_17  and  C_18
REMARK    7  A    between atoms: C_18  and  C_19
REMARK                            x       y       z     vdW  Elec       q    Type
REMARK                         _______ _______ _______ _____ _____    ______ ____
ROOT
ATOM      1  O   UNL     1      -6.586  -2.928   0.000  0.00  0.00    -0.270 OA
ATOM      2  C   UNL     1      -6.586  -4.428   0.000  0.00  0.00    +0.255 C 
ATOM      3  C   UNL     1      -7.799  -5.310   0.000  0.00  0.00    +0.050 A 
ATOM      4  C   UNL     1      -9.266  -4.998   0.000  0.00  0.00    +0.017 A 
ATOM      5  C   UNL     1     -10.270  -6.113   0.000  0.00  0.00    +0.046 A 
ATOM      6  C   UNL     1      -9.806  -7.540   0.000  0.00  0.00    +0.118 A 
ATOM      9  C   UNL     1      -8.339  -7.851   0.000  0.00  0.00    +0.059 A 
ATOM     10  C   UNL     1      -7.336  -6.737   0.000  0.00  0.00    +0.053 A 
ATOM     11  C   UNL     1      -5.836  -6.737   0.000  0.00  0.00    +0.255 C 
ATOM     12  O   UNL     1      -4.954  -7.950   0.000  0.00  0.00    -0.270 OA
ATOM     13  N   UNL     1      -5.372  -5.310   0.000  0.00  0.00    -0.220 N 
ENDROOT
BRANCH   6   7
ATOM      7  O   UNL     1     -10.810  -8.654   0.000  0.00  0.00    -0.507 OA
ATOM      8  H   UNL     1     -11.727  -8.459   0.000  0.00  0.00    +0.292 HD
ENDBRANCH   6   7
BRANCH  13  14
ATOM     14  C   UNL     1      -3.945  -4.846   0.000  0.00  0.00    +0.193 C 
BRANCH  14  22
ATOM     22  C   UNL     1      -2.831  -5.850   0.000  0.00  0.00    +0.326 C 
ATOM     25  O   UNL     1      -1.404  -5.387   0.000  0.00  0.00    -0.249 OA
BRANCH  22  23
ATOM     23  O   UNL     1      -3.143  -7.317   0.000  0.00  0.00    -0.479 OA
ATOM     24  H   UNL     1      -4.034  -7.607   0.000  0.00  0.00    +0.295 HD
ENDBRANCH  22  23
ENDBRANCH  14  22
BRANCH  14  15
ATOM     15  C   UNL     1      -3.634  -3.379   0.000  0.00  0.00    +0.043 C 
BRANCH  15  16
ATOM     16  C   UNL     1      -2.148  -3.171   0.000  0.00  0.00    +0.098 C 
BRANCH  16  17
ATOM     17  C   UNL     1      -1.586  -1.780   0.000  0.00  0.00    +0.211 C 
ATOM     18  N   UNL     1      -0.101  -1.571   0.000  0.00  0.00    -0.329 N 
ATOM     19  H   UNL     1       0.268  -0.658   0.000  0.00  0.00    +0.145 HD
ATOM     20  H   UNL     1       0.505  -2.347   0.000  0.00  0.00    +0.145 HD
ATOM     21  O   UNL     1      -2.510  -0.598   0.000  0.00  0.00    -0.276 OA
ENDBRANCH  16  17
ENDBRANCH  15  16
ENDBRANCH  14  15
ENDBRANCH  13  14
TORSDOF 7