REMARK  Name = 78846
REMARK  10 active torsions:
REMARK  status: ('A' for Active; 'I' for Inactive)
REMARK    1  A    between atoms: C_1  and  N_15
REMARK    2  A    between atoms: C_1  and  C_19
REMARK    3  A    between atoms: C_7  and  C_17
REMARK    4  A    between atoms: C_10  and  C_21
REMARK    5  A    between atoms: C_12  and  C_13
REMARK    6  A    between atoms: C_12  and  N_16
REMARK    7  A    between atoms: C_13  and  C_14
REMARK    8  A    between atoms: N_23  and  C_24
REMARK    9  A    between atoms: C_24  and  C_25
REMARK   10  A    between atoms: C_25  and  C_26
REMARK                            x       y       z     vdW  Elec       q    Type
REMARK                         _______ _______ _______ _____ _____    ______ ____
ROOT
ATOM      9  N   UNL     1       9.520   2.869   0.000  0.00  0.00    -0.297 N 
ATOM     10  H   UNL     1       9.434   1.889   0.000  0.00  0.00    +0.150 HD
ATOM     11  C   UNL     1      10.819   3.619   0.000  0.00  0.00    +0.246 C 
ATOM     12  O   UNL     1      10.819   5.120   0.000  0.00  0.00    -0.270 OA
ENDROOT
BRANCH  11  13
ATOM     13  C   UNL     1      12.118   2.869   0.000  0.00  0.00    +0.049 A 
ATOM     14  C   UNL     1      12.118   1.369   0.000  0.00  0.00    +0.049 A 
ATOM     22  C   UNL     1      13.418   0.620   0.000  0.00  0.00    +0.014 A 
ATOM     23  C   UNL     1      14.717   1.369   0.000  0.00  0.00    +0.001 A 
ATOM     24  C   UNL     1      14.717   2.869   0.000  0.00  0.00    +0.001 A 
ATOM     25  C   UNL     1      13.418   3.619   0.000  0.00  0.00    +0.014 A 
BRANCH  14  15
ATOM     15  C   UNL     1      10.819   0.620   0.000  0.00  0.00    +0.245 C 
ATOM     16  O   UNL     1       9.520   1.369   0.000  0.00  0.00    -0.270 OA
ATOM     17  N   UNL     1      10.819  -0.880   0.000  0.00  0.00    -0.311 N 
ATOM     18  H   UNL     1      11.672  -1.373   0.000  0.00  0.00    +0.149 HD
BRANCH  17  19
ATOM     19  C   UNL     1       9.520  -1.631   0.000  0.00  0.00    +0.104 C 
BRANCH  19  20
ATOM     20  C   UNL     1       9.520  -3.131   0.000  0.00  0.00    +0.015 C 
ATOM     21  C   UNL     1       8.221  -3.881   0.000  0.00  0.00    +0.005 C 
ENDBRANCH  19  20
ENDBRANCH  17  19
ENDBRANCH  14  15
ENDBRANCH  11  13
BRANCH   9   1
ATOM      1  C   UNL     1       8.371   3.834   0.000  0.00  0.00    +0.111 C 
ATOM     26  C   UNL     1       9.450   4.876   0.000  0.00  0.00    +0.035 C 
ATOM     27  C   UNL     1       8.793   6.224   0.000  0.00  0.00    +0.003 C 
ATOM     28  C   UNL     1       7.307   6.015   0.000  0.00  0.00    +0.003 C 
ATOM     29  C   UNL     1       7.047   4.538   0.000  0.00  0.00    +0.035 C 
BRANCH   1   2
ATOM      2  C   UNL     1       7.532   2.590   0.000  0.00  0.00    +0.237 C 
ATOM      3  N   UNL     1       6.036   2.695   0.000  0.00  0.00    -0.314 N 
ATOM      4  H   UNL     1       5.486   1.879   0.000  0.00  0.00    +0.149 HD
ATOM      8  O   UNL     1       8.190   1.242   0.000  0.00  0.00    -0.273 OA
BRANCH   3   5
ATOM      5  C   UNL     1       5.379   4.043   0.000  0.00  0.00    +0.104 C 
BRANCH   5   6
ATOM      6  C   UNL     1       6.217   5.287   0.000  0.00  0.00    +0.015 C 
ATOM      7  C   UNL     1       5.560   6.635   0.000  0.00  0.00    +0.005 C 
ENDBRANCH   5   6
ENDBRANCH   3   5
ENDBRANCH   1   2
ENDBRANCH   9   1
TORSDOF 8