REMARK  Name = 7578
REMARK  4 active torsions:
REMARK  status: ('A' for Active; 'I' for Inactive)
REMARK    1  A    between atoms: C_8  and  N_23
REMARK    2  A    between atoms: C_9  and  N_23
REMARK    3  A    between atoms: C_10  and  C_24
REMARK    4  A    between atoms: C_24  and  O_26
REMARK                            x       y       z     vdW  Elec       q    Type
REMARK                         _______ _______ _______ _____ _____    ______ ____
ROOT
ATOM      1  O   UNL     1      -6.120  -4.399   0.000  0.00  0.00    -0.287 OA
ATOM      2  C   UNL     1      -6.120  -5.899   0.000  0.00  0.00    +0.196 C 
ATOM      3  C   UNL     1      -7.419  -6.649   0.000  0.00  0.00    +0.033 A 
ATOM      4  C   UNL     1      -8.718  -5.899   0.000  0.00  0.00    +0.012 A 
ATOM      5  C   UNL     1     -10.017  -6.649   0.000  0.00  0.00    +0.001 A 
ATOM      6  C   UNL     1     -10.017  -8.149   0.000  0.00  0.00    +0.001 A 
ATOM      7  C   UNL     1      -8.718  -8.899   0.000  0.00  0.00    +0.012 A 
ATOM      8  C   UNL     1      -7.419  -8.149   0.000  0.00  0.00    +0.033 A 
ATOM      9  C   UNL     1      -6.120  -8.899   0.000  0.00  0.00    +0.195 C 
ATOM     10  C   UNL     1      -4.821  -8.149   0.000  0.00  0.00    +0.035 A 
ATOM     11  C   UNL     1      -3.522  -8.899   0.000  0.00  0.00    +0.013 A 
ATOM     12  C   UNL     1      -2.223  -8.149   0.000  0.00  0.00    +0.017 A 
ATOM     13  C   UNL     1      -2.223  -6.649   0.000  0.00  0.00    +0.081 A 
ATOM     18  C   UNL     1      -3.522  -5.899   0.000  0.00  0.00    +0.057 A 
ATOM     27  O   UNL     1      -6.120 -10.400   0.000  0.00  0.00    -0.287 OA
ATOM     28  C   UNL     1      -4.821  -6.649   0.000  0.00  0.00    +0.055 A 
ENDROOT
BRANCH  13  14
ATOM     14  C   UNL     1      -0.814  -6.136   0.000  0.00  0.00    +0.339 C 
ATOM     17  O   UNL     1       0.336  -7.101   0.000  0.00  0.00    -0.245 OA
BRANCH  14  15
ATOM     15  O   UNL     1      -0.553  -4.659   0.000  0.00  0.00    -0.477 OA
ATOM     16  H   UNL     1       0.327  -4.339   0.000  0.00  0.00    +0.295 HD
ENDBRANCH  14  15
ENDBRANCH  13  14
BRANCH  18  19
ATOM     19  N   UNL     1      -3.522  -4.399   0.000  0.00  0.00    -0.313 N 
ATOM     20  H   UNL     1      -4.414  -3.983   0.000  0.00  0.00    +0.152 HD
BRANCH  19  21
ATOM     21  C   UNL     1      -2.373  -3.435   0.000  0.00  0.00    +0.031 A 
ATOM     22  C   UNL     1      -2.634  -1.958   0.000  0.00  0.00    +0.023 A 
ATOM     23  C   UNL     1      -1.484  -0.994   0.000  0.00  0.00    +0.002 A 
ATOM     24  C   UNL     1      -0.075  -1.507   0.000  0.00  0.00    +0.000 A 
ATOM     25  C   UNL     1       0.186  -2.984   0.000  0.00  0.00    +0.002 A 
ATOM     26  C   UNL     1      -0.964  -3.948   0.000  0.00  0.00    +0.023 A 
ENDBRANCH  19  21
ENDBRANCH  18  19
TORSDOF 4