REMARK  Name = 7745
REMARK  10 active torsions:
REMARK  status: ('A' for Active; 'I' for Inactive)
REMARK    1  A    between atoms: C_3  and  C_9
REMARK    2  A    between atoms: C_4  and  C_15
REMARK    3  A    between atoms: C_6  and  C_10
REMARK    4  A    between atoms: C_7  and  C_8
REMARK    5  A    between atoms: C_10  and  O_12
REMARK    6  A    between atoms: O_12  and  C_13
REMARK    7  A    between atoms: C_13  and  C_14
REMARK    8  A    between atoms: C_15  and  O_17
REMARK    9  A    between atoms: O_17  and  C_18
REMARK   10  A    between atoms: C_18  and  C_19
REMARK                            x       y       z     vdW  Elec       q    Type
REMARK                         _______ _______ _______ _____ _____    ______ ____
ROOT
ATOM      1  O   UNL     1       2.049  -5.250   0.000  0.00  0.00    -0.463 OA
ATOM      2  C   UNL     1       2.049  -6.750   0.000  0.00  0.00    +0.120 A 
ATOM      3  C   UNL     1       0.750  -7.500   0.000  0.00  0.00    +0.087 C 
ATOM      4  C   UNL     1       3.348  -7.500   0.000  0.00  0.00    +0.144 A 
ATOM     10  C   UNL     1       4.647  -6.750   0.000  0.00  0.00    +0.213 A 
ATOM     11  C   UNL     1       4.647  -5.250   0.000  0.00  0.00    +0.144 A 
ATOM     17  O   UNL     1       5.946  -7.500   0.000  0.00  0.00    -0.286 OA
ATOM     18  C   UNL     1       3.348  -4.500   0.000  0.00  0.00    +0.120 A 
ATOM     19  C   UNL     1       3.348  -3.000   0.000  0.00  0.00    +0.087 C 
ENDROOT
BRANCH   4   5
ATOM      5  C   UNL     1       3.348  -9.000   0.000  0.00  0.00    +0.346 C 
ATOM      9  O   UNL     1       2.049  -9.750   0.000  0.00  0.00    -0.245 OA
BRANCH   5   6
ATOM      6  O   UNL     1       4.647  -9.750   0.000  0.00  0.00    -0.461 OA
BRANCH   6   7
ATOM      7  C   UNL     1       5.946  -9.000   0.000  0.00  0.00    +0.229 C 
ATOM      8  C   UNL     1       7.245  -9.750   0.000  0.00  0.00    +0.048 C 
ENDBRANCH   6   7
ENDBRANCH   5   6
ENDBRANCH   4   5
BRANCH  11  12
ATOM     12  C   UNL     1       5.946  -4.500   0.000  0.00  0.00    +0.346 C 
ATOM     16  O   UNL     1       7.245  -5.250   0.000  0.00  0.00    -0.245 OA
BRANCH  12  13
ATOM     13  O   UNL     1       5.946  -3.000   0.000  0.00  0.00    -0.461 OA
BRANCH  13  14
ATOM     14  C   UNL     1       4.647  -2.250   0.000  0.00  0.00    +0.229 C 
ATOM     15  C   UNL     1       4.647  -0.750   0.000  0.00  0.00    +0.048 C 
ENDBRANCH  13  14
ENDBRANCH  12  13
ENDBRANCH  11  12
TORSDOF 6