REMARK  Name = 75241
REMARK  4 active torsions:
REMARK  status: ('A' for Active; 'I' for Inactive)
REMARK    1  A    between atoms: N_5  and  C_12
REMARK    2  A    between atoms: C_9  and  C_11
REMARK    3  A    between atoms: C_12  and  C_13
REMARK    4  A    between atoms: C_12  and  C_14
REMARK                            x       y       z     vdW  Elec       q    Type
REMARK                         _______ _______ _______ _____ _____    ______ ____
ROOT
ATOM      1 BR   UNL     1      -1.025   6.274   0.000  0.00  0.00    -0.043 Br
ATOM      2  C   UNL     1       0.275   5.524   0.000  0.00  0.00    +0.101 A 
ATOM      3  C   UNL     1       0.275   4.024   0.000  0.00  0.00    +0.037 A 
ATOM      4  C   UNL     1      -1.025   3.275   0.000  0.00  0.00    +0.065 C 
ATOM      5  N   UNL     1       1.574   3.275   0.000  0.00  0.00    -0.310 N 
ATOM      6  H   UNL     1       1.574   1.775   0.000  0.00  0.00    +0.170 HD
ATOM      7  C   UNL     1       2.873   4.024   0.000  0.00  0.00    +0.330 A 
ATOM      8  O   UNL     1       4.172   3.275   0.000  0.00  0.00    -0.246 OA
ATOM      9  N   UNL     1       2.873   5.524   0.000  0.00  0.00    -0.258 N 
ATOM     13  C   UNL     1       1.574   6.274   0.000  0.00  0.00    +0.271 A 
ATOM     14  O   UNL     1       1.574   7.774   0.000  0.00  0.00    -0.266 OA
ENDROOT
BRANCH   9  10
ATOM     10  C   UNL     1       4.172   6.274   0.000  0.00  0.00    +0.089 C 
ATOM     11  C   UNL     1       4.172   7.774   0.000  0.00  0.00    +0.031 C 
ATOM     12  C   UNL     1       5.471   5.524   0.000  0.00  0.00    +0.031 C 
ENDBRANCH   9  10
TORSDOF 1