REMARK  Name = 71881
REMARK  2 active torsions:
REMARK  status: ('A' for Active; 'I' for Inactive)
REMARK    1  A    between atoms: C_7  and  N_24
REMARK    2  A    between atoms: C_15  and  N_21
REMARK                            x       y       z     vdW  Elec       q    Type
REMARK                         _______ _______ _______ _____ _____    ______ ____
ROOT
ATOM      8  N   UNL     1      -8.544  -6.000   0.000  0.00  0.00    -0.269 N 
ATOM      9  H   UNL     1      -8.544  -6.984   0.000  0.00  0.00    +0.156 HD
ATOM     10  C   UNL     1      -7.245  -5.250   0.000  0.00  0.00    +0.308 C 
ATOM     11  N   UNL     1      -7.245  -3.750   0.000  0.00  0.00    -0.269 N 
ATOM     12  H   UNL     1      -8.098  -3.258   0.000  0.00  0.00    +0.156 HD
ATOM     23  O   UNL     1      -5.946  -6.000   0.000  0.00  0.00    -0.252 OA
ENDROOT
BRANCH   8   7
ATOM      1  N   UNL     1     -13.740  -3.000   0.000  0.00  0.00    -0.255 NA
ATOM      2  C   UNL     1     -12.441  -3.750   0.000  0.00  0.00    +0.071 A 
ATOM      3  C   UNL     1     -12.441  -5.250   0.000  0.00  0.00    +0.002 A 
ATOM      4  C   UNL     1     -13.740  -6.000   0.000  0.00  0.00    +0.011 A 
ATOM      5  C   UNL     1     -15.039  -5.250   0.000  0.00  0.00    +0.020 A 
ATOM      6  C   UNL     1     -11.142  -6.000   0.000  0.00  0.00    +0.033 A 
ATOM      7  C   UNL     1      -9.843  -5.250   0.000  0.00  0.00    +0.035 A 
ATOM     24  C   UNL     1      -9.843  -3.750   0.000  0.00  0.00    +0.025 A 
ATOM     25  C   UNL     1     -11.142  -3.000   0.000  0.00  0.00    +0.030 A 
ATOM     26  C   UNL     1     -15.039  -3.750   0.000  0.00  0.00    +0.111 A 
ENDBRANCH   8   7
BRANCH  11  13
ATOM     13  C   UNL     1      -5.946  -3.000   0.000  0.00  0.00    +0.035 A 
ATOM     14  C   UNL     1      -4.647  -3.750   0.000  0.00  0.00    +0.033 A 
ATOM     15  C   UNL     1      -3.348  -3.000   0.000  0.00  0.00    +0.002 A 
ATOM     16  C   UNL     1      -2.049  -3.750   0.000  0.00  0.00    +0.011 A 
ATOM     17  C   UNL     1      -0.750  -3.000   0.000  0.00  0.00    +0.020 A 
ATOM     18  C   UNL     1      -0.750  -1.500   0.000  0.00  0.00    +0.111 A 
ATOM     19  N   UNL     1      -2.049  -0.750   0.000  0.00  0.00    -0.255 NA
ATOM     20  C   UNL     1      -3.348  -1.500   0.000  0.00  0.00    +0.071 A 
ATOM     21  C   UNL     1      -4.647  -0.750   0.000  0.00  0.00    +0.030 A 
ATOM     22  C   UNL     1      -5.946  -1.500   0.000  0.00  0.00    +0.025 A 
ENDBRANCH  11  13
TORSDOF 2