REMARK  Name = 7436
REMARK  8 active torsions:
REMARK  status: ('A' for Active; 'I' for Inactive)
REMARK    1  A    between atoms: C_3  and  N_17
REMARK    2  A    between atoms: C_4  and  C_18
REMARK    3  A    between atoms: C_9  and  S_14
REMARK    4  A    between atoms: C_11  and  N_13
REMARK    5  A    between atoms: S_14  and  N_17
REMARK    6  A    between atoms: C_18  and  C_19
REMARK    7  A    between atoms: C_18  and  C_20
REMARK    8  A    between atoms: C_18  and  C_21
REMARK                            x       y       z     vdW  Elec       q    Type
REMARK                         _______ _______ _______ _____ _____    ______ ____
ROOT
ATOM      3  N   UNL     1       2.498   6.924   0.000  0.00  0.00    -0.216 N 
ATOM      4  H   UNL     1       3.350   6.432   0.000  0.00  0.00    +0.174 HD
ENDROOT
BRANCH   3   2
ATOM      1  C   UNL     1       1.198   9.174   0.000  0.00  0.00    +0.025 A 
ATOM      2  C   UNL     1       2.498   8.424   0.000  0.00  0.00    +0.048 A 
ATOM     17  C   UNL     1       3.797   9.174   0.000  0.00  0.00    +0.025 A 
ATOM     18  C   UNL     1       3.797  10.674   0.000  0.00  0.00    +0.006 A 
ATOM     19  C   UNL     1       2.498  11.424   0.000  0.00  0.00    -0.042 A 
ATOM     24  C   UNL     1       1.198  10.674   0.000  0.00  0.00    +0.006 A 
BRANCH  19  20
ATOM     20  C   UNL     1       2.498  12.924   0.000  0.00  0.00    -0.013 C 
ATOM     21  C   UNL     1       2.498  14.424   0.000  0.00  0.00    +0.015 C 
ATOM     22  C   UNL     1       0.998  12.924   0.000  0.00  0.00    +0.015 C 
ATOM     23  C   UNL     1       3.998  12.924   0.000  0.00  0.00    +0.015 C 
ENDBRANCH  19  20
ENDBRANCH   3   2
BRANCH   3   5
ATOM      5  S   UNL     1       1.199   6.174   0.000  0.00  0.00    +0.072 S 
ATOM      6  O   UNL     1       0.449   7.473   0.000  0.00  0.00    -0.150 OA
ATOM      7  O   UNL     1       1.948   4.875   0.000  0.00  0.00    -0.150 OA
BRANCH   5   8
ATOM      8  C   UNL     1      -0.101   5.424   0.000  0.00  0.00    +0.109 A 
ATOM      9  C   UNL     1      -0.101   3.924   0.000  0.00  0.00    +0.030 A 
ATOM     10  C   UNL     1      -1.400   3.174   0.000  0.00  0.00    +0.024 A 
ATOM     11  C   UNL     1      -2.699   3.924   0.000  0.00  0.00    +0.025 A 
ATOM     15  C   UNL     1      -2.699   5.424   0.000  0.00  0.00    +0.024 A 
ATOM     16  C   UNL     1      -1.400   6.174   0.000  0.00  0.00    +0.030 A 
BRANCH  11  12
ATOM     12  N   UNL     1      -3.998   3.174   0.000  0.00  0.00    -0.358 N 
ATOM     13  H   UNL     1      -3.998   2.190   0.000  0.00  0.00    +0.142 HD
ATOM     14  H   UNL     1      -4.850   3.666   0.000  0.00  0.00    +0.142 HD
ENDBRANCH  11  12
ENDBRANCH   5   8
ENDBRANCH   3   5
TORSDOF 5