REMARK  Name = 70959
REMARK  2 active torsions:
REMARK  status: ('A' for Active; 'I' for Inactive)
REMARK    1  A    between atoms: C_5  and  C_11
REMARK    2  A    between atoms: C_7  and  C_8
REMARK                            x       y       z     vdW  Elec       q    Type
REMARK                         _______ _______ _______ _____ _____    ______ ____
ROOT
ATOM      1 CL   UNL     1      -3.522   7.399   0.000  0.00  0.00    -0.041 Cl
ATOM      2  C   UNL     1      -2.223   6.649   0.000  0.00  0.00    +0.224 A 
ATOM      3  N   UNL     1      -0.924   7.399   0.000  0.00  0.00    -0.213 NA
ATOM      4  C   UNL     1       0.375   6.649   0.000  0.00  0.00    +0.131 A 
ATOM     10  C   UNL     1       0.375   5.149   0.000  0.00  0.00    +0.066 A 
ATOM     11  C   UNL     1      -0.924   4.399   0.000  0.00  0.00    +0.131 A 
ATOM     17  N   UNL     1      -2.223   5.149   0.000  0.00  0.00    -0.213 NA
ENDROOT
BRANCH   4   5
ATOM      5  C   UNL     1       1.674   7.399   0.000  0.00  0.00    +0.260 C 
ATOM      6  N   UNL     1       1.674   8.899   0.000  0.00  0.00    -0.324 N 
ATOM      7  H   UNL     1       0.821   9.392   0.000  0.00  0.00    +0.145 HD
ATOM      8  H   UNL     1       2.527   9.392   0.000  0.00  0.00    +0.145 HD
ATOM      9  O   UNL     1       2.973   6.649   0.000  0.00  0.00    -0.269 OA
ENDBRANCH   4   5
BRANCH  11  12
ATOM     12  C   UNL     1      -0.924   2.900   0.000  0.00  0.00    +0.260 C 
ATOM     13  N   UNL     1       0.375   2.150   0.000  0.00  0.00    -0.324 N 
ATOM     14  H   UNL     1       1.228   2.642   0.000  0.00  0.00    +0.145 HD
ATOM     15  H   UNL     1       0.375   1.165   0.000  0.00  0.00    +0.145 HD
ATOM     16  O   UNL     1      -2.223   2.150   0.000  0.00  0.00    -0.269 OA
ENDBRANCH  11  12
TORSDOF 2