REMARK  Name = 77422
REMARK  6 active torsions:
REMARK  status: ('A' for Active; 'I' for Inactive)
REMARK    1  A    between atoms: C_6  and  C_11
REMARK    2  A    between atoms: C_8  and  S_9
REMARK    3  A    between atoms: S_9  and  C_10
REMARK    4  A    between atoms: C_11  and  O_12
REMARK    5  A    between atoms: O_12  and  C_13
REMARK    6  A    between atoms: C_13  and  C_14
REMARK                            x       y       z     vdW  Elec       q    Type
REMARK                         _______ _______ _______ _____ _____    ______ ____
ROOT
ATOM      1  O   UNL     1      -6.770  -4.774   0.000  0.00  0.00    -0.266 OA
ATOM      2  C   UNL     1      -5.471  -5.524   0.000  0.00  0.00    +0.274 A 
ATOM      3  C   UNL     1      -4.172  -4.774   0.000  0.00  0.00    +0.095 A 
ATOM      4  C   UNL     1      -2.873  -5.524   0.000  0.00  0.00    +0.049 A 
ATOM      9  N   UNL     1      -2.873  -7.024   0.000  0.00  0.00    -0.336 N 
ATOM     10  H   UNL     1      -1.573  -7.774   0.000  0.00  0.00    +0.168 HD
ATOM     11  C   UNL     1      -4.172  -7.774   0.000  0.00  0.00    +0.170 A 
ATOM     14  N   UNL     1      -5.471  -7.024   0.000  0.00  0.00    -0.185 NA
ENDROOT
BRANCH  11  12
ATOM     12  S   UNL     1      -4.172  -9.274   0.000  0.00  0.00    -0.091 S 
ATOM     13  C   UNL     1      -5.471 -10.025   0.000  0.00  0.00    +0.093 C 
ENDBRANCH  11  12
BRANCH   4   5
ATOM      5  C   UNL     1      -1.573  -4.774   0.000  0.00  0.00    +0.213 C 
BRANCH   5   6
ATOM      6  O   UNL     1      -0.275  -5.524   0.000  0.00  0.00    -0.374 OA
BRANCH   6   7
ATOM      7  C   UNL     1       1.025  -4.774   0.000  0.00  0.00    +0.157 C 
ATOM      8  C   UNL     1       2.324  -5.524   0.000  0.00  0.00    +0.034 C 
ENDBRANCH   6   7
ENDBRANCH   5   6
ENDBRANCH   4   5
TORSDOF 4