REMARK  Name = 7867
REMARK  2 active torsions:
REMARK  status: ('A' for Active; 'I' for Inactive)
REMARK    1  A    between atoms: N_4  and  C_19
REMARK    2  A    between atoms: C_12  and  N_18
REMARK                            x       y       z     vdW  Elec       q    Type
REMARK                         _______ _______ _______ _____ _____    ______ ____
ROOT
ATOM      1 CL   UNL     1       1.025  -0.275   0.000  0.00  0.00    -0.041 Cl
ATOM      2  C   UNL     1       2.324  -1.025   0.000  0.00  0.00    +0.226 A 
ATOM      3  N   UNL     1       3.623  -0.275   0.000  0.00  0.00    -0.198 NA
ATOM      4  C   UNL     1       4.922  -1.025   0.000  0.00  0.00    +0.164 A 
ATOM      5  C   UNL     1       4.922  -2.525   0.000  0.00  0.00    +0.079 A 
ATOM      6  C   UNL     1       6.348  -2.988   0.000  0.00  0.00    +0.148 A 
ATOM      7  N   UNL     1       7.230  -1.775   0.000  0.00  0.00    -0.177 NA
ATOM      8  C   UNL     1       3.623  -3.275   0.000  0.00  0.00    +0.138 A 
ATOM      9  N   UNL     1       3.623  -4.774   0.000  0.00  0.00    -0.298 N 
ATOM     10  H   UNL     1       4.475  -5.267   0.000  0.00  0.00    +0.154 HD
ATOM     18  N   UNL     1       6.348  -0.561   0.000  0.00  0.00    -0.249 N 
ATOM     19  C   UNL     1       6.812   0.866   0.000  0.00  0.00    +0.174 C 
ATOM     20  N   UNL     1       2.324  -2.525   0.000  0.00  0.00    -0.202 NA
ENDROOT
BRANCH   9  11
ATOM     11  C   UNL     1       2.324  -5.524   0.000  0.00  0.00    +0.051 A 
ATOM     12  C   UNL     1       2.324  -7.024   0.000  0.00  0.00    +0.025 A 
ATOM     13  C   UNL     1       1.025  -7.774   0.000  0.00  0.00    +0.002 A 
ATOM     14  C   UNL     1      -0.275  -7.024   0.000  0.00  0.00    +0.002 A 
ATOM     15  C   UNL     1      -0.275  -5.524   0.000  0.00  0.00    +0.022 A 
ATOM     16  C   UNL     1       1.025  -4.774   0.000  0.00  0.00    +0.062 A 
ATOM     17 CL   UNL     1       1.025  -3.275   0.000  0.00  0.00    -0.082 Cl
ENDBRANCH   9  11
TORSDOF 1