REMARK  Name = 75846
REMARK  3 active torsions:
REMARK  status: ('A' for Active; 'I' for Inactive)
REMARK    1  A    between atoms: C_3  and  N_8
REMARK    2  A    between atoms: C_3  and  C_10
REMARK    3  A    between atoms: N_8  and  C_9
REMARK                            x       y       z     vdW  Elec       q    Type
REMARK                         _______ _______ _______ _____ _____    ______ ____
ROOT
ATOM      1  H   UNL     1      -0.946   3.139   0.000  0.00  0.00    +0.122 HD
ATOM      2  N   UNL     1       0.353   3.889   0.000  0.00  0.00    -0.316 NA
ATOM      3  C   UNL     1       1.652   3.139   0.000  0.00  0.00    +0.083 C 
ATOM      4  C   UNL     1       2.951   3.889   0.000  0.00  0.00    +0.046 C 
ATOM      5  C   UNL     1       2.951   5.389   0.000  0.00  0.00    +0.098 C 
ATOM     14  C   UNL     1       1.652   6.139   0.000  0.00  0.00    +0.046 C 
ATOM     15  C   UNL     1       0.353   5.389   0.000  0.00  0.00    +0.083 C 
ENDROOT
BRANCH   5   6
ATOM      6  C   UNL     1       4.428   5.128   0.000  0.00  0.00    +0.231 C 
ATOM      7  N   UNL     1       5.392   6.277   0.000  0.00  0.00    -0.328 N 
ATOM      8  H   UNL     1       5.056   7.203   0.000  0.00  0.00    +0.145 HD
ATOM      9  H   UNL     1       6.362   6.106   0.000  0.00  0.00    +0.145 HD
ATOM     10  O   UNL     1       4.941   3.719   0.000  0.00  0.00    -0.274 OA
ENDBRANCH   5   6
BRANCH   5  11
ATOM     11  N   UNL     1       3.464   6.798   0.000  0.00  0.00    -0.306 NA
ATOM     12  H   UNL     1       2.808   7.580   0.000  0.00  0.00    +0.123 HD
ATOM     13  C   UNL     1       4.941   7.059   0.000  0.00  0.00    +0.102 C 
ENDBRANCH   5  11
TORSDOF 2