REMARK  Name = 73482
REMARK  0 active torsions:
REMARK  status: ('A' for Active; 'I' for Inactive)
REMARK                            x       y       z     vdW  Elec       q    Type
REMARK                         _______ _______ _______ _____ _____    ______ ____
ROOT
ATOM      1  C   UNL     1      -6.120  -4.399   0.000  0.00  0.00    +0.001 A 
ATOM      2  C   UNL     1      -6.120  -5.899   0.000  0.00  0.00    +0.001 A 
ATOM      3  C   UNL     1      -4.821  -6.649   0.000  0.00  0.00    +0.010 A 
ATOM      4  C   UNL     1      -3.522  -5.899   0.000  0.00  0.00    +0.001 A 
ATOM      5  C   UNL     1      -2.223  -6.649   0.000  0.00  0.00    +0.120 A 
ATOM      6  N   UNL     1      -0.924  -5.899   0.000  0.00  0.00    -0.254 NA
ATOM      7  C   UNL     1      -0.924  -4.399   0.000  0.00  0.00    +0.072 A 
ATOM      8  C   UNL     1       0.375  -3.650   0.000  0.00  0.00    +0.028 A 
ATOM      9  C   UNL     1       0.375  -2.150   0.000  0.00  0.00    +0.002 A 
ATOM     10  C   UNL     1      -0.924  -1.400   0.000  0.00  0.00    +0.001 A 
ATOM     11  C   UNL     1      -2.223  -2.150   0.000  0.00  0.00    +0.010 A 
ATOM     12  C   UNL     1      -2.223  -3.650   0.000  0.00  0.00    +0.008 A 
ATOM     13  C   UNL     1      -3.522  -4.399   0.000  0.00  0.00    -0.007 A 
ATOM     14  C   UNL     1      -4.821  -3.650   0.000  0.00  0.00    +0.009 A 
ENDROOT
TORSDOF 0