REMARK  Name = 75786
REMARK  2 active torsions:
REMARK  status: ('A' for Active; 'I' for Inactive)
REMARK    1  A    between atoms: C_1  and  N_6
REMARK    2  A    between atoms: N_4  and  C_7
REMARK                            x       y       z     vdW  Elec       q    Type
REMARK                         _______ _______ _______ _____ _____    ______ ____
ROOT
ATOM      1  C   UNL     1      -3.263   2.177   0.000  0.00  0.00    +0.120 A 
ATOM      5  C   UNL     1      -2.799   0.750   0.000  0.00  0.00    +0.064 A 
ATOM      6  C   UNL     1      -1.299   0.750   0.000  0.00  0.00    +0.136 A 
ATOM      7  N   UNL     1      -0.836   2.177   0.000  0.00  0.00    -0.173 NA
ATOM      8  N   UNL     1      -2.049   3.058   0.000  0.00  0.00    -0.219 N 
ENDROOT
BRANCH   8   9
ATOM      9  C   UNL     1      -2.049   4.558   0.000  0.00  0.00    +0.067 A 
ATOM     10  C   UNL     1      -0.750   5.308   0.000  0.00  0.00    +0.028 A 
ATOM     11  C   UNL     1      -0.750   6.808   0.000  0.00  0.00    +0.002 A 
ATOM     12  C   UNL     1      -2.049   7.558   0.000  0.00  0.00    +0.000 A 
ATOM     13  C   UNL     1      -3.348   6.808   0.000  0.00  0.00    +0.002 A 
ATOM     14  C   UNL     1      -3.348   5.308   0.000  0.00  0.00    +0.028 A 
ENDBRANCH   8   9
BRANCH   1   2
ATOM      2  N   UNL     1      -4.689   2.640   0.000  0.00  0.00    -0.343 N 
ATOM      3  H   UNL     1      -5.421   1.981   0.000  0.00  0.00    +0.144 HD
ATOM      4  H   UNL     1      -4.894   3.603   0.000  0.00  0.00    +0.144 HD
ENDBRANCH   1   2
TORSDOF 2