REMARK  Name = 72292
REMARK  2 active torsions:
REMARK  status: ('A' for Active; 'I' for Inactive)
REMARK    1  A    between atoms: C_4  and  C_16
REMARK    2  A    between atoms: C_11  and  O_15
REMARK                            x       y       z     vdW  Elec       q    Type
REMARK                         _______ _______ _______ _____ _____    ______ ____
ROOT
ATOM      1  H   UNL     1      -4.482  -1.734   0.000  0.00  0.00    +0.166 HD
ATOM      2  N   UNL     1      -4.014  -3.159   0.000  0.00  0.00    -0.353 N 
ATOM      3  C   UNL     1      -4.892  -4.376   0.000  0.00  0.00    +0.051 A 
ATOM      4  C   UNL     1      -6.384  -4.537   0.000  0.00  0.00    +0.071 A 
ATOM      5  C   UNL     1      -6.990  -5.909   0.000  0.00  0.00    +0.119 A 
ATOM      8  C   UNL     1      -6.104  -7.120   0.000  0.00  0.00    +0.046 A 
ATOM      9  C   UNL     1      -4.613  -6.959   0.000  0.00  0.00    +0.014 A 
ATOM     10  C   UNL     1      -4.007  -5.586   0.000  0.00  0.00    +0.008 A 
ATOM     11  C   UNL     1      -2.582  -5.119   0.000  0.00  0.00    +0.011 A 
ATOM     12  C   UNL     1      -1.281  -5.865   0.000  0.00  0.00    +0.030 A 
ATOM     13  C   UNL     1       0.016  -5.111   0.000  0.00  0.00    +0.112 A 
ATOM     14  N   UNL     1       0.012  -3.611   0.000  0.00  0.00    -0.258 NA
ATOM     15  C   UNL     1      -1.290  -2.865   0.000  0.00  0.00    +0.062 A 
ATOM     16  C   UNL     1      -1.294  -1.365   0.000  0.00  0.00    +0.068 C 
ATOM     17  C   UNL     1      -2.586  -3.619   0.000  0.00  0.00    +0.069 A 
ENDROOT
BRANCH   5   6
ATOM      6  O   UNL     1      -8.481  -6.070   0.000  0.00  0.00    -0.507 OA
ATOM      7  H   UNL     1      -9.034  -5.314   0.000  0.00  0.00    +0.292 HD
ENDBRANCH   5   6
TORSDOF 1