REMARK  Name = 76747
REMARK  3 active torsions:
REMARK  status: ('A' for Active; 'I' for Inactive)
REMARK    1  A    between atoms: C_11  and  C_22
REMARK    2  A    between atoms: C_18  and  C_21
REMARK    3  A    between atoms: C_19  and  C_20
REMARK                            x       y       z     vdW  Elec       q    Type
REMARK                         _______ _______ _______ _____ _____    ______ ____
ROOT
ATOM      1  H   UNL     1       4.259   5.078   0.000  0.00  0.00    +0.166 HD
ATOM      2  N   UNL     1       2.920   4.401   0.000  0.00  0.00    -0.358 N 
ATOM      3  C   UNL     1       2.681   2.920   0.000  0.00  0.00    +0.021 A 
ATOM      4  C   UNL     1       3.739   1.856   0.000  0.00  0.00    +0.064 C 
ATOM      5  C   UNL     1       1.199   2.689   0.000  0.00  0.00    +0.004 A 
ATOM     17  C   UNL     1       0.522   4.028   0.000  0.00  0.00    +0.007 A 
ATOM     18  C   UNL     1      -0.926   4.420   0.000  0.00  0.00    +0.010 A 
ATOM     19  C   UNL     1      -1.310   5.870   0.000  0.00  0.00    +0.001 A 
ATOM     20  C   UNL     1      -0.246   6.928   0.000  0.00  0.00    +0.002 A 
ATOM     21  C   UNL     1       1.201   6.535   0.000  0.00  0.00    +0.026 A 
ATOM     22  C   UNL     1       1.586   5.085   0.000  0.00  0.00    +0.047 A 
ENDROOT
BRANCH   5   6
ATOM      6  C   UNL     1       0.514   1.355   0.000  0.00  0.00    +0.020 C 
ATOM      7  C   UNL     1       1.328   0.095   0.000  0.00  0.00    +0.006 C 
ATOM      8  C   UNL     1       0.786  -1.304   0.000  0.00  0.00    +0.047 C 
ATOM      9  C   UNL     1      -0.663  -1.689   0.000  0.00  0.00    +0.066 C 
ATOM     10  N   UNL     1       1.950  -2.252   0.000  0.00  0.00    -0.251 NA
ATOM     11  C   UNL     1       3.210  -1.438   0.000  0.00  0.00    +0.072 A 
ATOM     12  C   UNL     1       4.658  -1.831   0.000  0.00  0.00    +0.028 A 
ATOM     13  C   UNL     1       5.721  -0.773   0.000  0.00  0.00    +0.002 A 
ATOM     14  C   UNL     1       5.337   0.677   0.000  0.00  0.00    +0.001 A 
ATOM     15  C   UNL     1       3.889   1.069   0.000  0.00  0.00    +0.010 A 
ATOM     16  C   UNL     1       2.826   0.012   0.000  0.00  0.00    +0.009 A 
ENDBRANCH   5   6
TORSDOF 1