REMARK  Name = 154718
REMARK  1 active torsions:
REMARK  status: ('A' for Active; 'I' for Inactive)
REMARK    1  A    between atoms: C_4  and  C_14
REMARK                            x       y       z     vdW  Elec       q    Type
REMARK                         _______ _______ _______ _____ _____    ______ ____
ROOT
ATOM      1  N   UNL     1      -3.521  -6.654   0.000  0.00  0.00    -0.235 NA
ATOM      2  C   UNL     1      -4.734  -5.773   0.000  0.00  0.00    +0.075 A 
ATOM      3  C   UNL     1      -6.105  -6.383   0.000  0.00  0.00    +0.028 A 
ATOM      4  C   UNL     1      -7.318  -5.501   0.000  0.00  0.00    +0.002 A 
ATOM      5  C   UNL     1      -7.161  -4.010   0.000  0.00  0.00    +0.001 A 
ATOM      6  C   UNL     1      -5.791  -3.399   0.000  0.00  0.00    +0.012 A 
ATOM      7  C   UNL     1      -4.577  -4.281   0.000  0.00  0.00    +0.026 A 
ATOM      8  C   UNL     1      -3.207  -3.671   0.000  0.00  0.00    +0.078 A 
ATOM      9  C   UNL     1      -2.744  -2.244   0.000  0.00  0.00    +0.053 A 
ATOM     10  C   UNL     1      -1.244  -2.244   0.000  0.00  0.00    +0.061 A 
ATOM     11  C   UNL     1      -0.362  -1.031   0.000  0.00  0.00    +0.067 C 
ATOM     12  N   UNL     1      -0.780  -3.671   0.000  0.00  0.00    -0.170 NA
ATOM     13  N   UNL     1      -1.994  -4.553   0.000  0.00  0.00    -0.221 N 
ATOM     14  C   UNL     1      -2.151  -6.044   0.000  0.00  0.00    +0.223 A 
ENDROOT
TORSDOF 0