REMARK  Name = 162188
REMARK  5 active torsions:
REMARK  status: ('A' for Active; 'I' for Inactive)
REMARK    1  A    between atoms: C_5  and  C_8
REMARK    2  A    between atoms: C_8  and  C_13
REMARK    3  A    between atoms: C_9  and  C_13
REMARK    4  A    between atoms: C_13  and  O_14
REMARK    5  A    between atoms: C_13  and  C_15
REMARK                            x       y       z     vdW  Elec       q    Type
REMARK                         _______ _______ _______ _____ _____    ______ ____
ROOT
ATOM      7  C   UNL     1      -3.348  -2.799   0.000  0.00  0.00    +0.260 C 
ENDROOT
BRANCH   7   8
ATOM      8  C   UNL     1      -3.608  -4.276   0.000  0.00  0.00    +0.427 C 
ATOM      9  F   UNL     1      -3.869  -5.753   0.000  0.00  0.00    -0.167 F 
ATOM     10  F   UNL     1      -2.131  -4.537   0.000  0.00  0.00    -0.167 F 
ATOM     11  F   UNL     1      -5.086  -4.016   0.000  0.00  0.00    -0.167 F 
ENDBRANCH   7   8
BRANCH   7  14
ATOM     14  C   UNL     1      -2.049  -2.049   0.000  0.00  0.00    +0.427 C 
ATOM     15  F   UNL     1      -1.299  -3.348   0.000  0.00  0.00    -0.167 F 
ATOM     16  F   UNL     1      -0.750  -1.299   0.000  0.00  0.00    -0.167 F 
ATOM     17  F   UNL     1      -2.799  -0.750   0.000  0.00  0.00    -0.167 F 
ENDBRANCH   7  14
BRANCH   7  12
ATOM     12  O   UNL     1      -2.049  -3.549   0.000  0.00  0.00    -0.373 OA
ATOM     13  H   UNL     1      -2.049  -4.519   0.000  0.00  0.00    +0.211 HD
ENDBRANCH   7  12
BRANCH   7   6
ATOM      6  C   UNL     1      -4.647  -2.049   0.000  0.00  0.00    +0.088 C 
BRANCH   6   5
ATOM      1  O   UNL     1      -9.843  -5.049   0.000  0.00  0.00    -0.620 OA
ATOM      2  N   UNL     1      -8.544  -4.299   0.000  0.00  0.00    -0.177 N 
ATOM      3  C   UNL     1      -7.245  -5.049   0.000  0.00  0.00    +0.322 A 
ATOM      4  C   UNL     1      -5.946  -4.299   0.000  0.00  0.00    +0.075 A 
ATOM      5  C   UNL     1      -5.946  -2.799   0.000  0.00  0.00    -0.033 A 
ATOM     18  C   UNL     1      -7.245  -2.049   0.000  0.00  0.00    +0.075 A 
ATOM     19  C   UNL     1      -8.544  -2.799   0.000  0.00  0.00    +0.322 A 
ENDBRANCH   6   5
ENDBRANCH   7   6
TORSDOF 5