REMARK  Name = 163144
REMARK  3 active torsions:
REMARK  status: ('A' for Active; 'I' for Inactive)
REMARK    1  A    between atoms: C_9  and  C_11
REMARK    2  A    between atoms: C_12  and  C_13
REMARK    3  A    between atoms: C_12  and  C_15
REMARK                            x       y       z     vdW  Elec       q    Type
REMARK                         _______ _______ _______ _____ _____    ______ ____
ROOT
ATOM      1  H   UNL     1      -6.747   3.030   0.000  0.00  0.00    +0.165 HD
ATOM      2  N   UNL     1      -7.211   1.603   0.000  0.00  0.00    -0.360 N 
ATOM      3  C   UNL     1      -6.329   0.389   0.000  0.00  0.00    +0.091 A 
ATOM      4  C   UNL     1      -7.211  -0.824   0.000  0.00  0.00    +0.001 A 
ATOM     14  C   UNL     1      -8.637  -0.361   0.000  0.00  0.00    +0.007 A 
ATOM     15  C   UNL     1      -9.936  -1.111   0.000  0.00  0.00    +0.010 A 
ATOM     16  C   UNL     1     -11.235  -0.361   0.000  0.00  0.00    +0.001 A 
ATOM     17  C   UNL     1     -11.235   1.139   0.000  0.00  0.00    +0.002 A 
ATOM     18  C   UNL     1      -9.936   1.889   0.000  0.00  0.00    +0.026 A 
ATOM     19  C   UNL     1      -8.637   1.139   0.000  0.00  0.00    +0.047 A 
ENDROOT
BRANCH   4   5
ATOM      5  C   UNL     1      -6.747  -2.251   0.000  0.00  0.00    +0.034 C 
ATOM      6  C   UNL     1      -5.280  -2.563   0.000  0.00  0.00    +0.114 C 
BRANCH   6   7
ATOM      7  C   UNL     1      -4.816  -3.989   0.000  0.00  0.00    +0.252 C 
ATOM      8  N   UNL     1      -5.820  -5.104   0.000  0.00  0.00    -0.325 N 
ATOM      9  H   UNL     1      -5.516  -6.040   0.000  0.00  0.00    +0.145 HD
ATOM     10  H   UNL     1      -6.783  -4.899   0.000  0.00  0.00    +0.145 HD
ATOM     11  O   UNL     1      -3.349  -4.301   0.000  0.00  0.00    -0.270 OA
ENDBRANCH   6   7
BRANCH   6  12
ATOM     12  C   UNL     1      -4.276  -1.448   0.000  0.00  0.00    +0.104 C 
ATOM     13  N   UNL     1      -3.273  -0.333   0.000  0.00  0.00    -0.191 NA
ENDBRANCH   6  12
ENDBRANCH   4   5
TORSDOF 3