REMARK  Name = 156516
REMARK  4 active torsions:
REMARK  status: ('A' for Active; 'I' for Inactive)
REMARK    1  A    between atoms: S_1  and  C_16
REMARK    2  A    between atoms: S_1  and  C_22
REMARK    3  A    between atoms: S_4  and  C_10
REMARK    4  A    between atoms: S_4  and  C_17
REMARK                            x       y       z     vdW  Elec       q    Type
REMARK                         _______ _______ _______ _____ _____    ______ ____
ROOT
ATOM      2  C   UNL     1       3.348 -10.500   0.000  0.00  0.00    +0.024 A 
ATOM      3  C   UNL     1       3.348 -12.000   0.000  0.00  0.00    +0.016 A 
ATOM      4  C   UNL     1       4.647 -12.750   0.000  0.00  0.00    +0.002 A 
ATOM      5  C   UNL     1       5.946 -12.000   0.000  0.00  0.00    +0.012 A 
ATOM      6  C   UNL     1       5.946 -10.500   0.000  0.00  0.00    +0.034 A 
ATOM      7  C   UNL     1       7.245  -9.750   0.000  0.00  0.00    +0.195 C 
ATOM      8  C   UNL     1       7.245  -8.250   0.000  0.00  0.00    +0.034 A 
ATOM      9  C   UNL     1       8.544  -7.500   0.000  0.00  0.00    +0.012 A 
ATOM     10  C   UNL     1       8.544  -6.000   0.000  0.00  0.00    +0.002 A 
ATOM     11  C   UNL     1       7.245  -5.250   0.000  0.00  0.00    +0.016 A 
ATOM     12  C   UNL     1       5.946  -6.000   0.000  0.00  0.00    +0.024 A 
ATOM     20  C   UNL     1       5.946  -7.500   0.000  0.00  0.00    +0.047 A 
ATOM     21  C   UNL     1       4.647  -8.250   0.000  0.00  0.00    +0.197 C 
ATOM     22  O   UNL     1       3.348  -7.500   0.000  0.00  0.00    -0.287 OA
ATOM     23  O   UNL     1       8.544 -10.500   0.000  0.00  0.00    -0.287 OA
ATOM     24  C   UNL     1       4.647  -9.750   0.000  0.00  0.00    +0.047 A 
ENDROOT
BRANCH   2   1
ATOM      1  S   UNL     1       2.049  -9.750   0.000  0.00  0.00    -0.089 S 
BRANCH   1  25
ATOM     25  C   UNL     1       0.750 -10.500   0.000  0.00  0.00    +0.013 A 
ATOM     26  C   UNL     1      -0.549  -9.750   0.000  0.00  0.00    +0.015 A 
ATOM     27  C   UNL     1      -1.848 -10.500   0.000  0.00  0.00    +0.001 A 
ATOM     28  C   UNL     1      -1.848 -12.000   0.000  0.00  0.00    +0.000 A 
ATOM     29  C   UNL     1      -0.549 -12.750   0.000  0.00  0.00    +0.001 A 
ATOM     30  C   UNL     1       0.750 -12.000   0.000  0.00  0.00    +0.015 A 
ENDBRANCH   1  25
ENDBRANCH   2   1
BRANCH  12  13
ATOM     13  S   UNL     1       4.647  -5.250   0.000  0.00  0.00    -0.089 S 
BRANCH  13  14
ATOM     14  C   UNL     1       4.647  -3.750   0.000  0.00  0.00    +0.013 A 
ATOM     15  C   UNL     1       3.348  -3.000   0.000  0.00  0.00    +0.015 A 
ATOM     16  C   UNL     1       3.348  -1.500   0.000  0.00  0.00    +0.001 A 
ATOM     17  C   UNL     1       4.647  -0.750   0.000  0.00  0.00    +0.000 A 
ATOM     18  C   UNL     1       5.946  -1.500   0.000  0.00  0.00    +0.001 A 
ATOM     19  C   UNL     1       5.946  -3.000   0.000  0.00  0.00    +0.015 A 
ENDBRANCH  13  14
ENDBRANCH  12  13
TORSDOF 4