REMARK  Name = 156563
REMARK  8 active torsions:
REMARK  status: ('A' for Active; 'I' for Inactive)
REMARK    1  A    between atoms: N_1  and  C_8
REMARK    2  A    between atoms: N_2  and  C_9
REMARK    3  A    between atoms: C_3  and  C_19
REMARK    4  A    between atoms: C_11  and  O_23
REMARK    5  A    between atoms: C_14  and  C_24
REMARK    6  A    between atoms: C_19  and  C_20
REMARK    7  A    between atoms: C_20  and  O_22
REMARK    8  A    between atoms: C_24  and  O_26
REMARK                            x       y       z     vdW  Elec       q    Type
REMARK                         _______ _______ _______ _____ _____    ______ ____
ROOT
ATOM     14  C   UNL     1       6.870  -5.899   0.000  0.00  0.00    +0.136 A 
ATOM     15  C   UNL     1       8.169  -6.649   0.000  0.00  0.00    +0.013 A 
ATOM     16  C   UNL     1       8.169  -8.149   0.000  0.00  0.00    +0.011 A 
ATOM     17  C   UNL     1       9.468  -8.899   0.000  0.00  0.00    +0.001 A 
ATOM     18  C   UNL     1      10.767  -8.149   0.000  0.00  0.00    +0.001 A 
ATOM     19  C   UNL     1      10.767  -6.649   0.000  0.00  0.00    +0.008 A 
ATOM     20  C   UNL     1       9.468  -5.899   0.000  0.00  0.00    -0.015 A 
ATOM     21  C   UNL     1       9.468  -4.399   0.000  0.00  0.00    +0.027 A 
ATOM     22  C   UNL     1       8.169  -3.650   0.000  0.00  0.00    +0.103 A 
ATOM     27  C   UNL     1       6.870  -4.399   0.000  0.00  0.00    +0.158 A 
ENDROOT
BRANCH  14  13
ATOM      1  N   UNL     1       4.272  -5.899   0.000  0.00  0.00    -0.149 NA
ATOM     13  N   UNL     1       5.571  -6.649   0.000  0.00  0.00    -0.145 NA
BRANCH   1   2
ATOM      2  C   UNL     1       2.129  -7.137   0.000  0.00  0.00    +0.086 A 
ATOM      3  C   UNL     1       2.129  -8.637   0.000  0.00  0.00    +0.030 A 
ATOM      4  C   UNL     1       0.830  -9.387   0.000  0.00  0.00    +0.006 A 
ATOM      5  C   UNL     1      -0.469  -8.637   0.000  0.00  0.00    -0.037 A 
ATOM     11  C   UNL     1      -0.469  -7.137   0.000  0.00  0.00    +0.006 A 
ATOM     12  C   UNL     1       0.830  -6.387   0.000  0.00  0.00    +0.030 A 
BRANCH   5   6
ATOM      6  C   UNL     1      -1.768  -9.387   0.000  0.00  0.00    +0.155 C 
BRANCH   6   7
ATOM      7  C   UNL     1      -3.067  -8.637   0.000  0.00  0.00    +0.309 C 
ATOM     10  O   UNL     1      -4.367  -9.387   0.000  0.00  0.00    -0.251 OA
BRANCH   7   8
ATOM      8  O   UNL     1      -3.067  -7.137   0.000  0.00  0.00    -0.480 OA
ATOM      9  H   UNL     1      -2.256  -6.669   0.000  0.00  0.00    +0.295 HD
ENDBRANCH   7   8
ENDBRANCH   6   7
ENDBRANCH   5   6
ENDBRANCH   1   2
ENDBRANCH  14  13
BRANCH  22  23
ATOM     23  C   UNL     1       8.169  -2.150   0.000  0.00  0.00    +0.340 C 
ATOM     26  O   UNL     1       6.870  -1.400   0.000  0.00  0.00    -0.245 OA
BRANCH  23  24
ATOM     24  O   UNL     1       9.468  -1.400   0.000  0.00  0.00    -0.477 OA
ATOM     25  H   UNL     1      10.280  -1.868   0.000  0.00  0.00    +0.295 HD
ENDBRANCH  23  24
ENDBRANCH  22  23
BRANCH  27  28
ATOM     28  O   UNL     1       5.571  -3.650   0.000  0.00  0.00    -0.504 OA
ATOM     29  H   UNL     1       5.571  -2.713   0.000  0.00  0.00    +0.292 HD
ENDBRANCH  27  28
TORSDOF 8