REMARK  Name = 15784
REMARK  2 active torsions:
REMARK  status: ('A' for Active; 'I' for Inactive)
REMARK    1  A    between atoms: C_9  and  C_18
REMARK    2  A    between atoms: C_12  and  C_19
REMARK                            x       y       z     vdW  Elec       q    Type
REMARK                         _______ _______ _______ _____ _____    ______ ____
ROOT
ATOM      1  N   UNL     1     -10.767  -3.650   0.000  0.00  0.00    -0.255 NA
ATOM      2  C   UNL     1      -9.468  -4.399   0.000  0.00  0.00    +0.072 A 
ATOM      3  C   UNL     1      -8.169  -3.650   0.000  0.00  0.00    +0.008 A 
ATOM      4  C   UNL     1      -8.169  -2.150   0.000  0.00  0.00    -0.014 A 
ATOM     14  C   UNL     1      -9.468  -1.400   0.000  0.00  0.00    +0.028 A 
ATOM     15  C   UNL     1      -6.870  -4.399   0.000  0.00  0.00    +0.010 A 
ATOM     16  C   UNL     1      -6.870  -5.899   0.000  0.00  0.00    +0.001 A 
ATOM     17  C   UNL     1      -8.169  -6.649   0.000  0.00  0.00    +0.002 A 
ATOM     18  C   UNL     1      -9.468  -5.899   0.000  0.00  0.00    +0.028 A 
ATOM     19  C   UNL     1     -10.767  -2.150   0.000  0.00  0.00    +0.112 A 
ENDROOT
BRANCH   4   5
ATOM      5  C   UNL     1      -6.870  -1.400   0.000  0.00  0.00    +0.009 C 
ATOM      6  C   UNL     1      -5.571  -2.150   0.000  0.00  0.00    +0.010 C 
BRANCH   6   7
ATOM      7  C   UNL     1      -4.272  -1.400   0.000  0.00  0.00    -0.007 A 
ATOM      8  C   UNL     1      -4.272   0.101   0.000  0.00  0.00    +0.009 A 
ATOM      9  C   UNL     1      -2.973   0.851   0.000  0.00  0.00    +0.001 A 
ATOM     10  C   UNL     1      -1.674   0.101   0.000  0.00  0.00    +0.001 A 
ATOM     11  C   UNL     1      -1.674  -1.400   0.000  0.00  0.00    +0.020 A 
ATOM     12  C   UNL     1      -2.973  -2.150   0.000  0.00  0.00    +0.048 A 
ATOM     13 CL   UNL     1      -2.973  -3.650   0.000  0.00  0.00    -0.083 Cl
ENDBRANCH   6   7
ENDBRANCH   4   5
TORSDOF 2