REMARK  Name = 159632
REMARK  5 active torsions:
REMARK  status: ('A' for Active; 'I' for Inactive)
REMARK    1  A    between atoms: C_4  and  O_15
REMARK    2  A    between atoms: C_5  and  O_13
REMARK    3  A    between atoms: C_5  and  C_14
REMARK    4  A    between atoms: C_10  and  C_16
REMARK    5  A    between atoms: C_12  and  C_17
REMARK                            x       y       z     vdW  Elec       q    Type
REMARK                         _______ _______ _______ _____ _____    ______ ____
ROOT
ATOM      1  O   UNL     1      -9.048  -5.250   0.000  0.00  0.00    -0.289 OA
ATOM      2  C   UNL     1      -7.749  -4.500   0.000  0.00  0.00    +0.201 C 
ATOM      3  C   UNL     1      -6.450  -5.250   0.000  0.00  0.00    +0.067 C 
ATOM      6  C   UNL     1      -5.151  -4.500   0.000  0.00  0.00    +0.000 C 
ATOM      7  C   UNL     1      -3.852  -5.250   0.000  0.00  0.00    +0.050 C 
ATOM      8  C   UNL     1      -2.553  -4.500   0.000  0.00  0.00    +0.102 C 
ATOM      9  C   UNL     1      -1.254  -5.250   0.000  0.00  0.00    +0.086 C 
ATOM     10  O   UNL     1      -2.553  -3.000   0.000  0.00  0.00    -0.468 OA
ATOM     11  C   UNL     1      -3.852  -2.250   0.000  0.00  0.00    +0.202 C 
ATOM     12  C   UNL     1      -5.151  -3.000   0.000  0.00  0.00    +0.027 C 
ATOM     13  C   UNL     1      -6.450  -2.250   0.000  0.00  0.00    +0.187 C 
ATOM     16  C   UNL     1      -7.749  -3.000   0.000  0.00  0.00    +0.155 C 
ATOM     17  C   UNL     1      -8.262  -1.591   0.000  0.00  0.00    +0.053 C 
ENDROOT
BRANCH   3   4
ATOM      4  C   UNL     1      -6.450  -6.750   0.000  0.00  0.00    +0.262 C 
ATOM      5  O   UNL     1      -7.749  -7.500   0.000  0.00  0.00    -0.296 OA
ENDBRANCH   3   4
BRANCH  13  14
ATOM     14  O   UNL     1      -6.450  -0.750   0.000  0.00  0.00    -0.384 OA
ATOM     15  H   UNL     1      -5.610  -0.265   0.000  0.00  0.00    +0.210 HD
ENDBRANCH  13  14
BRANCH  16  18
ATOM     18  O   UNL     1      -9.226  -3.261   0.000  0.00  0.00    -0.378 OA
ATOM     19  H   UNL     1      -9.850  -2.517   0.000  0.00  0.00    +0.211 HD
ENDBRANCH  16  18
TORSDOF 3