REMARK  Name = 162292
REMARK  1 active torsions:
REMARK  status: ('A' for Active; 'I' for Inactive)
REMARK    1  A    between atoms: C_6  and  N_14
REMARK                            x       y       z     vdW  Elec       q    Type
REMARK                         _______ _______ _______ _____ _____    ______ ____
ROOT
ATOM      8  C   UNL     1       5.250  -2.689   0.000  0.00  0.00    +0.075 C 
ATOM      9  C   UNL     1       5.250  -4.189   0.000  0.00  0.00    +0.022 C 
ATOM     10  C   UNL     1       6.311  -5.250   0.000  0.00  0.00    +0.002 C 
ATOM     11  C   UNL     1       7.811  -5.250   0.000  0.00  0.00    +0.000 C 
ATOM     12  C   UNL     1       8.871  -4.189   0.000  0.00  0.00    +0.000 C 
ATOM     13  C   UNL     1       8.871  -2.689   0.000  0.00  0.00    +0.000 C 
ATOM     14  C   UNL     1       7.811  -1.629   0.000  0.00  0.00    +0.002 C 
ATOM     15  C   UNL     1       6.311  -1.629   0.000  0.00  0.00    +0.022 C 
ENDROOT
BRANCH   8   6
ATOM      1  O   UNL     1       4.756   0.405   0.000  0.00  0.00    -0.464 OA
ATOM      2  C   UNL     1       4.111   1.758   0.000  0.00  0.00    +0.255 C 
ATOM      3  C   UNL     1       2.623   1.563   0.000  0.00  0.00    +0.187 C 
ATOM      4  N   UNL     1       2.350   0.088   0.000  0.00  0.00    -0.233 NA
ATOM      5  C   UNL     1       3.668  -0.628   0.000  0.00  0.00    +0.278 C 
ATOM      6  N   UNL     1       3.864  -2.115   0.000  0.00  0.00    -0.297 N 
ATOM      7  H   UNL     1       3.083  -2.714   0.000  0.00  0.00    +0.151 HD
ENDBRANCH   8   6
TORSDOF 1