REMARK  Name = 156957
REMARK  5 active torsions:
REMARK  status: ('A' for Active; 'I' for Inactive)
REMARK    1  A    between atoms: O_3  and  C_17
REMARK    2  A    between atoms: O_3  and  C_19
REMARK    3  A    between atoms: C_4  and  C_14
REMARK    4  A    between atoms: C_9  and  C_19
REMARK    5  A    between atoms: C_14  and  O_16
REMARK                            x       y       z     vdW  Elec       q    Type
REMARK                         _______ _______ _______ _____ _____    ______ ____
ROOT
ATOM      1  N   UNL     1       3.390  -3.058   0.000  0.00  0.00    -0.194 N 
ATOM      2  C   UNL     1       3.390  -4.558   0.000  0.00  0.00    +0.410 C 
ATOM      3  O   UNL     1       4.689  -5.308   0.000  0.00  0.00    -0.226 OA
ATOM     12  C   UNL     1       2.177  -2.177   0.000  0.00  0.00    +0.225 C 
ATOM     13  C   UNL     1       2.640  -0.750   0.000  0.00  0.00    +0.099 C 
ATOM     14  C   UNL     1       4.140  -0.750   0.000  0.00  0.00    +0.044 C 
ATOM     15  O   UNL     1       0.750  -2.640   0.000  0.00  0.00    -0.275 OA
ATOM     16  C   UNL     1       4.604  -2.177   0.000  0.00  0.00    +0.196 C 
ENDROOT
BRANCH  16  17
ATOM     17  C   UNL     1       6.030  -2.640   0.000  0.00  0.00    +0.326 C 
ATOM     20  O   UNL     1       7.145  -1.636   0.000  0.00  0.00    -0.249 OA
BRANCH  17  18
ATOM     18  O   UNL     1       6.342  -4.107   0.000  0.00  0.00    -0.479 OA
ATOM     19  H   UNL     1       5.646  -4.734   0.000  0.00  0.00    +0.295 HD
ENDBRANCH  17  18
ENDBRANCH  16  17
BRANCH   2   4
ATOM      4  O   UNL     1       2.091  -5.308   0.000  0.00  0.00    -0.445 OA
BRANCH   4   5
ATOM      5  C   UNL     1       2.091  -6.808   0.000  0.00  0.00    +0.269 C 
BRANCH   5   6
ATOM      6  C   UNL     1       3.390  -7.558   0.000  0.00  0.00    -0.010 A 
ATOM      7  C   UNL     1       3.390  -9.058   0.000  0.00  0.00    +0.007 A 
ATOM      8  C   UNL     1       4.689  -9.808   0.000  0.00  0.00    +0.000 A 
ATOM      9  C   UNL     1       5.988  -9.058   0.000  0.00  0.00    +0.000 A 
ATOM     10  C   UNL     1       5.988  -7.558   0.000  0.00  0.00    +0.000 A 
ATOM     11  C   UNL     1       4.689  -6.808   0.000  0.00  0.00    +0.007 A 
ENDBRANCH   5   6
ENDBRANCH   4   5
ENDBRANCH   2   4
TORSDOF 5