REMARK  Name = 156565
REMARK  6 active torsions:
REMARK  status: ('A' for Active; 'I' for Inactive)
REMARK    1  A    between atoms: C_3  and  C_23
REMARK    2  A    between atoms: C_8  and  N_24
REMARK    3  A    between atoms: C_9  and  N_24
REMARK    4  A    between atoms: C_20  and  O_25
REMARK    5  A    between atoms: C_23  and  C_26
REMARK    6  A    between atoms: C_26  and  O_27
REMARK                            x       y       z     vdW  Elec       q    Type
REMARK                         _______ _______ _______ _____ _____    ______ ____
ROOT
ATOM      1  O   UNL     1      -9.368  -6.274   0.000  0.00  0.00    -0.287 OA
ATOM      2  C   UNL     1      -9.368  -7.774   0.000  0.00  0.00    +0.196 C 
ATOM      3  C   UNL     1     -10.667  -8.524   0.000  0.00  0.00    +0.033 A 
ATOM      4  C   UNL     1     -11.966  -7.774   0.000  0.00  0.00    +0.012 A 
ATOM      5  C   UNL     1     -13.265  -8.524   0.000  0.00  0.00    +0.001 A 
ATOM      6  C   UNL     1     -13.265 -10.025   0.000  0.00  0.00    +0.001 A 
ATOM      7  C   UNL     1     -11.966 -10.775   0.000  0.00  0.00    +0.012 A 
ATOM      8  C   UNL     1     -10.667 -10.025   0.000  0.00  0.00    +0.033 A 
ATOM      9  C   UNL     1      -9.368 -10.775   0.000  0.00  0.00    +0.198 C 
ATOM     10  C   UNL     1      -8.069 -10.025   0.000  0.00  0.00    +0.076 A 
ATOM     11  C   UNL     1      -6.770 -10.775   0.000  0.00  0.00    +0.128 A 
ATOM     14  C   UNL     1      -5.471 -10.025   0.000  0.00  0.00    +0.048 A 
ATOM     15  C   UNL     1      -5.471  -8.524   0.000  0.00  0.00    +0.027 A 
ATOM     16  C   UNL     1      -6.770  -7.774   0.000  0.00  0.00    +0.043 A 
ATOM     29  O   UNL     1      -9.368 -12.275   0.000  0.00  0.00    -0.286 OA
ATOM     30  C   UNL     1      -8.069  -8.524   0.000  0.00  0.00    +0.058 A 
ENDROOT
BRANCH  11  12
ATOM     12  O   UNL     1      -6.770 -12.275   0.000  0.00  0.00    -0.506 OA
ATOM     13  H   UNL     1      -7.581 -12.743   0.000  0.00  0.00    +0.292 HD
ENDBRANCH  11  12
BRANCH  16  17
ATOM     17  N   UNL     1      -6.770  -6.274   0.000  0.00  0.00    -0.314 N 
ATOM     18  H   UNL     1      -7.622  -5.782   0.000  0.00  0.00    +0.152 HD
BRANCH  17  19
ATOM     19  C   UNL     1      -5.471  -5.524   0.000  0.00  0.00    +0.031 A 
ATOM     20  C   UNL     1      -5.471  -4.024   0.000  0.00  0.00    +0.023 A 
ATOM     21  C   UNL     1      -4.172  -3.275   0.000  0.00  0.00    +0.005 A 
ATOM     22  C   UNL     1      -2.873  -4.024   0.000  0.00  0.00    -0.045 A 
ATOM     27  C   UNL     1      -2.873  -5.524   0.000  0.00  0.00    +0.005 A 
ATOM     28  C   UNL     1      -4.172  -6.274   0.000  0.00  0.00    +0.023 A 
BRANCH  22  23
ATOM     23  C   UNL     1      -1.574  -3.275   0.000  0.00  0.00    +0.063 C 
BRANCH  23  24
ATOM     24  C   UNL     1      -0.275  -4.024   0.000  0.00  0.00    +0.160 C 
BRANCH  24  25
ATOM     25  O   UNL     1       1.025  -3.275   0.000  0.00  0.00    -0.395 OA
ATOM     26  H   UNL     1       1.865  -3.759   0.000  0.00  0.00    +0.209 HD
ENDBRANCH  24  25
ENDBRANCH  23  24
ENDBRANCH  22  23
ENDBRANCH  17  19
ENDBRANCH  16  17
TORSDOF 6