REMARK  Name = 156571
REMARK  5 active torsions:
REMARK  status: ('A' for Active; 'I' for Inactive)
REMARK    1  A    between atoms: N_1  and  O_10
REMARK    2  A    between atoms: C_3  and  C_11
REMARK    3  A    between atoms: C_3  and  C_12
REMARK    4  A    between atoms: C_7  and  C_8
REMARK    5  A    between atoms: C_7  and  C_9
REMARK                            x       y       z     vdW  Elec       q    Type
REMARK                         _______ _______ _______ _____ _____    ______ ____
ROOT
ATOM      1  N   UNL     1       3.526  -3.278   0.000  0.00  0.00    -0.179 NA
ATOM      4  C   UNL     1       2.227  -4.028   0.000  0.00  0.00    +0.048 C 
ATOM      5  C   UNL     1       1.714  -2.619   0.000  0.00  0.00    +0.030 C 
ATOM      6  C   UNL     1       0.750  -4.289   0.000  0.00  0.00    +0.030 C 
ATOM      7  C   UNL     1       2.227  -5.528   0.000  0.00  0.00    +0.098 C 
ATOM      8  C   UNL     1       3.526  -6.278   0.000  0.00  0.00    +0.137 C 
ATOM      9  C   UNL     1       4.825  -5.528   0.000  0.00  0.00    +0.098 C 
ATOM     10  O   UNL     1       3.526  -7.778   0.000  0.00  0.00    -0.297 OA
ATOM     11  C   UNL     1       4.825  -4.028   0.000  0.00  0.00    +0.048 C 
ATOM     12  C   UNL     1       6.303  -4.289   0.000  0.00  0.00    +0.030 C 
ATOM     13  C   UNL     1       5.338  -2.619   0.000  0.00  0.00    +0.030 C 
ENDROOT
BRANCH   1   2
ATOM      2  O   UNL     1       3.526  -1.778   0.000  0.00  0.00    -0.311 OA
ATOM      3  H   UNL     1       4.366  -1.293   0.000  0.00  0.00    +0.237 HD
ENDBRANCH   1   2
TORSDOF 1