REMARK  Name = 1614
REMARK  12 active torsions:
REMARK  status: ('A' for Active; 'I' for Inactive)
REMARK    1  A    between atoms: C_6  and  C_9
REMARK    2  A    between atoms: C_6  and  C_30
REMARK    3  A    between atoms: C_6  and  C_33
REMARK    4  A    between atoms: C_11  and  C_31
REMARK    5  A    between atoms: C_15  and  C_32
REMARK    6  A    between atoms: C_18  and  C_29
REMARK    7  A    between atoms: C_23  and  O_26
REMARK    8  A    between atoms: C_25  and  C_27
REMARK    9  A    between atoms: C_25  and  C_28
REMARK   10  A    between atoms: C_33  and  C_34
REMARK   11  A    between atoms: C_34  and  C_35
REMARK   12  A    between atoms: C_35  and  O_37
REMARK                            x       y       z     vdW  Elec       q    Type
REMARK                         _______ _______ _______ _____ _____    ______ ____
ROOT
ATOM      1  O   UNL     1      -3.873   9.113   0.000  0.00  0.00    -0.297 OA
ATOM      2  C   UNL     1      -2.382   9.270   0.000  0.00  0.00    +0.138 C 
ATOM      3  C   UNL     1      -1.500   8.057   0.000  0.00  0.00    +0.072 C 
ATOM      4  C   UNL     1      -0.008   8.213   0.000  0.00  0.00    +0.072 C 
ATOM      5  C   UNL     1       0.874   7.000   0.000  0.00  0.00    +0.138 C 
ATOM      6  C   UNL     1       0.264   5.630   0.000  0.00  0.00    +0.079 C 
ATOM      7  C   UNL     1      -1.228   5.473   0.000  0.00  0.00    +0.011 C 
ATOM      8  C   UNL     1      -1.838   4.102   0.000  0.00  0.00    -0.005 C 
ATOM      9  C   UNL     1      -0.383   3.740   0.000  0.00  0.00    +0.014 C 
ATOM     10  C   UNL     1      -1.943   2.606   0.000  0.00  0.00    +0.014 C 
ATOM     11  C   UNL     1      -3.330   3.946   0.000  0.00  0.00    +0.121 C 
ATOM     14  C   UNL     1      -4.212   5.159   0.000  0.00  0.00    +0.032 C 
ATOM     15  C   UNL     1      -3.602   6.529   0.000  0.00  0.00    +0.010 C 
ATOM     16  O   UNL     1       2.365   7.157   0.000  0.00  0.00    -0.297 OA
ATOM     17  C   UNL     1       0.602   9.584   0.000  0.00  0.00    -0.016 C 
ATOM     18  C   UNL     1       1.606   8.469   0.000  0.00  0.00    +0.012 C 
ATOM     19  C   UNL     1       2.029  10.047   0.000  0.00  0.00    +0.008 C 
ATOM     20  C   UNL     1       2.029  11.547   0.000  0.00  0.00    +0.005 C 
ATOM     21  C   UNL     1       0.602  12.011   0.000  0.00  0.00    -0.001 C 
ATOM     30  C   UNL     1      -0.280  10.797   0.000  0.00  0.00    -0.016 C 
ATOM     31  C   UNL     1      -1.030  12.096   0.000  0.00  0.00    +0.012 C 
ATOM     32  C   UNL     1      -2.110   6.686   0.000  0.00  0.00    -0.018 C 
ATOM     33  C   UNL     1      -2.992   7.900   0.000  0.00  0.00    +0.012 C 
ATOM     34  C   UNL     1      -1.771  10.640   0.000  0.00  0.00    +0.082 C 
ENDROOT
BRANCH  11  12
ATOM     12  O   UNL     1      -3.940   2.575   0.000  0.00  0.00    -0.391 OA
ATOM     13  H   UNL     1      -4.905   2.474   0.000  0.00  0.00    +0.210 HD
ENDBRANCH  11  12
BRANCH  21  22
ATOM     22  C   UNL     1      -1.294  13.602   0.000  0.00  0.00    -0.010 C 
ATOM     29  C   UNL     1      -2.258  12.453   0.000  0.00  0.00    +0.008 C 
BRANCH  22  23
ATOM     23  C   UNL     1      -1.033  15.079   0.000  0.00  0.00    +0.014 C 
BRANCH  23  24
ATOM     24  C   UNL     1       0.376  15.592   0.000  0.00  0.00    +0.121 C 
BRANCH  24  25
ATOM     25  C   UNL     1       0.637  17.069   0.000  0.00  0.00    +0.305 C 
ATOM     28  O   UNL     1       2.046  17.582   0.000  0.00  0.00    -0.251 OA
BRANCH  25  26
ATOM     26  O   UNL     1      -0.512  18.033   0.000  0.00  0.00    -0.481 OA
ATOM     27  H   UNL     1      -0.350  18.956   0.000  0.00  0.00    +0.295 HD
ENDBRANCH  25  26
ENDBRANCH  24  25
ENDBRANCH  23  24
ENDBRANCH  22  23
ENDBRANCH  21  22
TORSDOF 6