REMARK  Name = 16437
REMARK  6 active torsions:
REMARK  status: ('A' for Active; 'I' for Inactive)
REMARK    1  A    between atoms: O_1  and  C_14
REMARK    2  A    between atoms: O_1  and  C_25
REMARK    3  A    between atoms: O_2  and  C_8
REMARK    4  A    between atoms: O_2  and  C_27
REMARK    5  A    between atoms: C_15  and  C_27
REMARK    6  A    between atoms: C_18  and  C_25
REMARK                            x       y       z     vdW  Elec       q    Type
REMARK                         _______ _______ _______ _____ _____    ______ ____
ROOT
ATOM      4  C   UNL     1       6.870  -5.899   0.000  0.00  0.00    +0.068 A 
ATOM      5  C   UNL     1       8.169  -6.649   0.000  0.00  0.00    +0.015 A 
ATOM      6  C   UNL     1       9.468  -5.899   0.000  0.00  0.00    +0.001 A 
ATOM      7  C   UNL     1       9.468  -4.399   0.000  0.00  0.00    +0.008 A 
ATOM      8  C   UNL     1       8.169  -3.650   0.000  0.00  0.00    -0.016 A 
ATOM      9  C   UNL     1       8.169  -2.150   0.000  0.00  0.00    +0.008 A 
ATOM     10  C   UNL     1       6.870  -1.400   0.000  0.00  0.00    +0.001 A 
ATOM     11  C   UNL     1       5.571  -2.150   0.000  0.00  0.00    +0.015 A 
ATOM     12  C   UNL     1       5.571  -3.650   0.000  0.00  0.00    +0.068 A 
ATOM     22  C   UNL     1       6.870  -4.399   0.000  0.00  0.00    +0.010 A 
ENDROOT
BRANCH   4   2
ATOM      2  C   UNL     1       5.906  -7.049   0.000  0.00  0.00    +0.345 C 
ATOM      3  O   UNL     1       4.429  -6.788   0.000  0.00  0.00    -0.245 OA
BRANCH   2   1
ATOM      1  O   UNL     1       6.419  -8.458   0.000  0.00  0.00    -0.422 OA
BRANCH   1  23
ATOM     23  C   UNL     1       5.455  -9.607   0.000  0.00  0.00    +0.132 A 
ATOM     24  C   UNL     1       5.968 -11.017   0.000  0.00  0.00    +0.046 A 
ATOM     25  C   UNL     1       5.004 -12.166   0.000  0.00  0.00    +0.004 A 
ATOM     26  C   UNL     1       3.527 -11.905   0.000  0.00  0.00    +0.000 A 
ATOM     27  C   UNL     1       3.014 -10.496   0.000  0.00  0.00    +0.004 A 
ATOM     28  C   UNL     1       3.978  -9.347   0.000  0.00  0.00    +0.046 A 
ENDBRANCH   1  23
ENDBRANCH   2   1
ENDBRANCH   4   2
BRANCH  12  13
ATOM     13  C   UNL     1       4.272  -4.399   0.000  0.00  0.00    +0.345 C 
ATOM     14  O   UNL     1       4.272  -5.899   0.000  0.00  0.00    -0.245 OA
BRANCH  13  15
ATOM     15  O   UNL     1       2.973  -3.650   0.000  0.00  0.00    -0.422 OA
BRANCH  15  16
ATOM     16  C   UNL     1       2.973  -2.150   0.000  0.00  0.00    +0.132 A 
ATOM     17  C   UNL     1       1.674  -1.400   0.000  0.00  0.00    +0.046 A 
ATOM     18  C   UNL     1       1.674   0.101   0.000  0.00  0.00    +0.004 A 
ATOM     19  C   UNL     1       2.973   0.851   0.000  0.00  0.00    +0.000 A 
ATOM     20  C   UNL     1       4.272   0.101   0.000  0.00  0.00    +0.004 A 
ATOM     21  C   UNL     1       4.272  -1.400   0.000  0.00  0.00    +0.046 A 
ENDBRANCH  15  16
ENDBRANCH  13  15
ENDBRANCH  12  13
TORSDOF 6