REMARK  Name = 154585
REMARK  5 active torsions:
REMARK  status: ('A' for Active; 'I' for Inactive)
REMARK    1  A    between atoms: N_2  and  C_15
REMARK    2  A    between atoms: N_4  and  C_9
REMARK    3  A    between atoms: C_10  and  C_25
REMARK    4  A    between atoms: C_17  and  C_22
REMARK    5  A    between atoms: C_23  and  N_24
REMARK                            x       y       z     vdW  Elec       q    Type
REMARK                         _______ _______ _______ _____ _____    ______ ____
ROOT
ATOM      1  O   UNL     1       4.647   3.000   0.000  0.00  0.00    -0.269 OA
ATOM      2  C   UNL     1       5.946   3.750   0.000  0.00  0.00    +0.265 C 
ATOM      3  C   UNL     1       7.245   3.000   0.000  0.00  0.00    +0.113 C 
ATOM      4  C   UNL     1       7.245   1.500   0.000  0.00  0.00    +0.083 C 
ATOM      8  C   UNL     1       8.544   3.750   0.000  0.00  0.00    +0.265 C 
ATOM      9  O   UNL     1       9.843   3.000   0.000  0.00  0.00    -0.269 OA
ATOM     10  N   UNL     1       8.544   5.250   0.000  0.00  0.00    -0.189 N 
ATOM     18  C   UNL     1       7.245   6.000   0.000  0.00  0.00    +0.327 C 
ATOM     19  O   UNL     1       7.245   7.500   0.000  0.00  0.00    -0.251 OA
ATOM     20  N   UNL     1       5.946   5.250   0.000  0.00  0.00    -0.189 N 
ENDROOT
BRANCH  10  11
ATOM     11  C   UNL     1       9.843   6.000   0.000  0.00  0.00    +0.046 A 
ATOM     12  C   UNL     1      11.142   5.250   0.000  0.00  0.00    +0.024 A 
ATOM     13  C   UNL     1      12.441   6.000   0.000  0.00  0.00    +0.005 A 
ATOM     14  C   UNL     1      12.441   7.500   0.000  0.00  0.00    -0.050 A 
ATOM     15  C   UNL     1      13.740   8.250   0.000  0.00  0.00    +0.044 C 
ATOM     16  C   UNL     1      11.142   8.250   0.000  0.00  0.00    +0.005 A 
ATOM     17  C   UNL     1       9.843   7.500   0.000  0.00  0.00    +0.024 A 
ENDBRANCH  10  11
BRANCH  20  21
ATOM     21  C   UNL     1       4.647   6.000   0.000  0.00  0.00    +0.046 A 
ATOM     22  C   UNL     1       3.348   5.250   0.000  0.00  0.00    +0.024 A 
ATOM     23  C   UNL     1       2.049   6.000   0.000  0.00  0.00    +0.005 A 
ATOM     24  C   UNL     1       2.049   7.500   0.000  0.00  0.00    -0.050 A 
ATOM     25  C   UNL     1       0.750   8.250   0.000  0.00  0.00    +0.044 C 
ATOM     26  C   UNL     1       3.348   8.250   0.000  0.00  0.00    +0.005 A 
ATOM     27  C   UNL     1       4.647   7.500   0.000  0.00  0.00    +0.024 A 
ENDBRANCH  20  21
BRANCH   4   5
ATOM      5  N   UNL     1       5.946   0.750   0.000  0.00  0.00    -0.363 N 
ATOM      6  H   UNL     1       5.946  -0.234   0.000  0.00  0.00    +0.142 HD
ATOM      7  H   UNL     1       5.094   1.242   0.000  0.00  0.00    +0.142 HD
ENDBRANCH   4   5
TORSDOF 3