REMARK  Name = 163104
REMARK  5 active torsions:
REMARK  status: ('A' for Active; 'I' for Inactive)
REMARK    1  A    between atoms: C_8  and  C_12
REMARK    2  A    between atoms: C_9  and  C_11
REMARK    3  A    between atoms: C_12  and  C_13
REMARK    4  A    between atoms: C_13  and  C_14
REMARK    5  A    between atoms: C_14  and  C_15
REMARK                            x       y       z     vdW  Elec       q    Type
REMARK                         _______ _______ _______ _____ _____    ______ ____
ROOT
ATOM      1  S   UNL     1       0.750   2.250   0.000  0.00  0.00    -0.013 S 
ATOM      2  C   UNL     1       2.049   3.000   0.000  0.00  0.00    +0.158 A 
ATOM      3  N   UNL     1       3.348   2.250   0.000  0.00  0.00    -0.339 N 
ATOM      4  H   UNL     1       3.348   0.750   0.000  0.00  0.00    +0.167 HD
ATOM      5  C   UNL     1       4.647   3.000   0.000  0.00  0.00    +0.023 A 
ATOM      6  C   UNL     1       5.946   2.250   0.000  0.00  0.00    +0.064 C 
ATOM      7  C   UNL     1       4.647   4.500   0.000  0.00  0.00    +0.036 A 
ATOM     12  C   UNL     1       3.348   5.250   0.000  0.00  0.00    +0.255 A 
ATOM     13  O   UNL     1       3.348   6.750   0.000  0.00  0.00    -0.267 OA
ATOM     14  N   UNL     1       2.049   4.500   0.000  0.00  0.00    -0.303 N 
ATOM     15  H   UNL     1       0.750   5.250   0.000  0.00  0.00    +0.171 HD
ENDROOT
BRANCH   7   8
ATOM      8  C   UNL     1       5.946   5.250   0.000  0.00  0.00    +0.042 C 
BRANCH   8   9
ATOM      9  C   UNL     1       7.245   4.500   0.000  0.00  0.00    +0.005 C 
BRANCH   9  10
ATOM     10  C   UNL     1       8.544   5.250   0.000  0.00  0.00    -0.003 C 
ATOM     11  C   UNL     1       9.843   4.500   0.000  0.00  0.00    +0.004 C 
ENDBRANCH   9  10
ENDBRANCH   8   9
ENDBRANCH   7   8
TORSDOF 3