REMARK  Name = 159031
REMARK  3 active torsions:
REMARK  status: ('A' for Active; 'I' for Inactive)
REMARK    1  A    between atoms: C_4  and  C_8
REMARK    2  A    between atoms: C_15  and  O_17
REMARK    3  A    between atoms: O_17  and  C_18
REMARK                            x       y       z     vdW  Elec       q    Type
REMARK                         _______ _______ _______ _____ _____    ______ ____
ROOT
ATOM      1  N   UNL     1       8.117  -0.687   0.000  0.00  0.00    -0.354 N 
ATOM      2  H   UNL     1       9.232   0.317   0.000  0.00  0.00    +0.166 HD
ATOM      3  C   UNL     1       6.649  -0.375   0.000  0.00  0.00    +0.047 A 
ATOM      4  C   UNL     1       5.899   0.924   0.000  0.00  0.00    +0.030 A 
ATOM      5  C   UNL     1       4.399   0.924   0.000  0.00  0.00    +0.047 A 
ATOM      6  C   UNL     1       3.650  -0.375   0.000  0.00  0.00    +0.121 A 
ATOM      9  C   UNL     1       4.399  -1.674   0.000  0.00  0.00    +0.055 A 
ATOM     10  C   UNL     1       5.899  -1.674   0.000  0.00  0.00    +0.004 A 
ATOM     11  C   UNL     1       6.903  -2.789   0.000  0.00  0.00    +0.036 A 
ATOM     12  C   UNL     1       8.274  -2.179   0.000  0.00  0.00    +0.047 A 
ENDROOT
BRANCH  12  13
ATOM     13  C   UNL     1       9.573  -2.929   0.000  0.00  0.00    -0.002 A 
ATOM     14  C   UNL     1       9.573  -4.429   0.000  0.00  0.00    +0.010 A 
ATOM     15  C   UNL     1      10.872  -5.179   0.000  0.00  0.00    +0.001 A 
ATOM     16  C   UNL     1      12.171  -4.429   0.000  0.00  0.00    +0.000 A 
ATOM     17  C   UNL     1      12.171  -2.929   0.000  0.00  0.00    +0.001 A 
ATOM     18  C   UNL     1      10.872  -2.179   0.000  0.00  0.00    +0.010 A 
ENDBRANCH  12  13
BRANCH   6   7
ATOM      7  O   UNL     1       2.150  -0.375   0.000  0.00  0.00    -0.495 OA
ATOM      8  C   UNL     1       1.400   0.924   0.000  0.00  0.00    +0.277 C 
ENDBRANCH   6   7
TORSDOF 2