REMARK  Name = 157522
REMARK  5 active torsions:
REMARK  status: ('A' for Active; 'I' for Inactive)
REMARK    1  A    between atoms: C_3  and  C_6
REMARK    2  A    between atoms: C_3  and  C_9
REMARK    3  A    between atoms: C_7  and  N_16
REMARK    4  A    between atoms: C_17  and  C_18
REMARK    5  A    between atoms: C_17  and  C_19
REMARK                            x       y       z     vdW  Elec       q    Type
REMARK                         _______ _______ _______ _____ _____    ______ ____
ROOT
ATOM      1  N   UNL     1      -9.843  -3.750   0.000  0.00  0.00    -0.220 NA
ATOM      2  C   UNL     1      -9.843  -5.250   0.000  0.00  0.00    +0.225 A 
ATOM      3  N   UNL     1      -8.544  -6.000   0.000  0.00  0.00    -0.220 NA
ATOM      4  C   UNL     1      -7.245  -5.250   0.000  0.00  0.00    +0.129 A 
ATOM      8  C   UNL     1      -7.245  -3.750   0.000  0.00  0.00    +0.062 A 
ATOM     20  C   UNL     1      -8.544  -3.000   0.000  0.00  0.00    +0.129 A 
ATOM     21  N   UNL     1      -8.544  -1.500   0.000  0.00  0.00    -0.343 N 
ATOM     22  H   UNL     1      -9.397  -1.008   0.000  0.00  0.00    +0.144 HD
ATOM     23  H   UNL     1      -7.692  -1.008   0.000  0.00  0.00    +0.144 HD
ENDROOT
BRANCH   8   9
ATOM      9  C   UNL     1      -5.946  -3.000   0.000  0.00  0.00    -0.005 C 
ATOM     10  C   UNL     1      -5.946  -1.500   0.000  0.00  0.00    -0.067 C 
ATOM     11  C   UNL     1      -4.647  -0.750   0.000  0.00  0.00    +0.039 C 
ATOM     12  C   UNL     1      -7.245  -0.750   0.000  0.00  0.00    +0.039 C 
BRANCH   9  13
ATOM     13  C   UNL     1      -4.647  -3.750   0.000  0.00  0.00    -0.017 A 
ATOM     14  C   UNL     1      -4.647  -5.250   0.000  0.00  0.00    +0.010 A 
ATOM     15  C   UNL     1      -3.348  -6.000   0.000  0.00  0.00    +0.020 A 
ATOM     16  C   UNL     1      -2.049  -5.250   0.000  0.00  0.00    +0.041 A 
ATOM     17  C   UNL     1      -2.049  -3.750   0.000  0.00  0.00    +0.020 A 
ATOM     18 CL   UNL     1      -0.750  -6.000   0.000  0.00  0.00    -0.084 Cl
ATOM     19  C   UNL     1      -3.348  -3.000   0.000  0.00  0.00    +0.010 A 
ENDBRANCH   9  13
ENDBRANCH   8   9
BRANCH   4   5
ATOM      5  N   UNL     1      -5.946  -6.000   0.000  0.00  0.00    -0.343 N 
ATOM      6  H   UNL     1      -5.094  -5.508   0.000  0.00  0.00    +0.144 HD
ATOM      7  H   UNL     1      -5.946  -6.984   0.000  0.00  0.00    +0.144 HD
ENDBRANCH   4   5
TORSDOF 3