REMARK  Name = 160005
REMARK  1 active torsions:
REMARK  status: ('A' for Active; 'I' for Inactive)
REMARK    1  A    between atoms: C_6  and  N_12
REMARK                            x       y       z     vdW  Elec       q    Type
REMARK                         _______ _______ _______ _____ _____    ______ ____
ROOT
ATOM      5  N   UNL     1       3.650   2.973   0.000  0.00  0.00    -0.297 N 
ATOM      6  H   UNL     1       4.142   2.120   0.000  0.00  0.00    +0.151 HD
ATOM      7  C   UNL     1       4.399   4.272   0.000  0.00  0.00    +0.278 C 
ATOM      8  N   UNL     1       3.789   5.642   0.000  0.00  0.00    -0.233 NA
ATOM      9  C   UNL     1       4.904   6.646   0.000  0.00  0.00    +0.187 C 
ATOM     10  C   UNL     1       6.203   5.896   0.000  0.00  0.00    +0.255 C 
ATOM     11  O   UNL     1       5.891   4.429   0.000  0.00  0.00    -0.464 OA
ENDROOT
BRANCH   5   4
ATOM      1  C   UNL     1      -0.851   2.973   0.000  0.00  0.00    +0.000 C 
ATOM      2  C   UNL     1      -0.101   1.674   0.000  0.00  0.00    +0.002 C 
ATOM      3  C   UNL     1       1.400   1.674   0.000  0.00  0.00    +0.022 C 
ATOM      4  C   UNL     1       2.150   2.973   0.000  0.00  0.00    +0.075 C 
ATOM     12  C   UNL     1       1.400   4.272   0.000  0.00  0.00    +0.022 C 
ATOM     13  C   UNL     1      -0.101   4.272   0.000  0.00  0.00    +0.002 C 
ENDBRANCH   5   4
TORSDOF 1