REMARK  Name = 155703
REMARK  1 active torsions:
REMARK  status: ('A' for Active; 'I' for Inactive)
REMARK    1  A    between atoms: N_2  and  C_7
REMARK                            x       y       z     vdW  Elec       q    Type
REMARK                         _______ _______ _______ _____ _____    ______ ____
ROOT
ATOM      6  N   UNL     1      -2.575   4.217   0.000  0.00  0.00    -0.212 N 
ATOM      7  C   UNL     1      -3.457   3.003   0.000  0.00  0.00    +0.095 A 
ATOM      8  C   UNL     1      -2.575   1.790   0.000  0.00  0.00    +0.113 A 
ATOM      9  C   UNL     1      -3.185   0.419   0.000  0.00  0.00    +0.032 A 
ATOM     10  C   UNL     1      -4.677   0.263   0.000  0.00  0.00    +0.002 A 
ATOM     11  C   UNL     1      -5.559   1.476   0.000  0.00  0.00    +0.002 A 
ATOM     12  N   UNL     1      -1.149   2.253   0.000  0.00  0.00    -0.129 NA
ATOM     13  C   UNL     1      -4.949   2.846   0.000  0.00  0.00    +0.030 A 
ATOM     14  N   UNL     1      -1.149   3.753   0.000  0.00  0.00    -0.060 NA
ENDROOT
BRANCH   6   4
ATOM      1  N   UNL     1      -3.966   8.496   0.000  0.00  0.00    -0.263 NA
ATOM      2  C   UNL     1      -4.970   7.382   0.000  0.00  0.00    +0.113 A 
ATOM      3  C   UNL     1      -4.506   5.955   0.000  0.00  0.00    +0.047 A 
ATOM      4  C   UNL     1      -3.039   5.643   0.000  0.00  0.00    +0.071 A 
ATOM      5  C   UNL     1      -2.035   6.758   0.000  0.00  0.00    +0.047 A 
ATOM     15  C   UNL     1      -2.498   8.185   0.000  0.00  0.00    +0.113 A 
ENDBRANCH   6   4
TORSDOF 1