REMARK  Name = 163443
REMARK  7 active torsions:
REMARK  status: ('A' for Active; 'I' for Inactive)
REMARK    1  A    between atoms: N_2  and  C_28
REMARK    2  A    between atoms: O_3  and  C_27
REMARK    3  A    between atoms: O_3  and  C_29
REMARK    4  A    between atoms: C_9  and  C_29
REMARK    5  A    between atoms: C_10  and  C_25
REMARK    6  A    between atoms: C_17  and  C_26
REMARK    7  A    between atoms: C_27  and  C_28
REMARK                            x       y       z     vdW  Elec       q    Type
REMARK                         _______ _______ _______ _____ _____    ______ ____
ROOT
ATOM      1  N   UNL     1      -8.926  -7.632   0.000  0.00  0.00    -0.263 NA
ATOM      2  C   UNL     1      -9.389  -6.205   0.000  0.00  0.00    +0.111 A 
ATOM      3  C   UNL     1      -8.386  -5.090   0.000  0.00  0.00    +0.028 A 
ATOM      4  C   UNL     1      -6.918  -5.402   0.000  0.00  0.00    -0.010 A 
ATOM      5  C   UNL     1      -6.455  -6.829   0.000  0.00  0.00    +0.004 A 
ATOM      6  C   UNL     1      -4.988  -7.141   0.000  0.00  0.00    -0.032 A 
ATOM      7  C   UNL     1      -4.524  -8.567   0.000  0.00  0.00    +0.045 C 
ATOM      8  C   UNL     1      -3.984  -6.026   0.000  0.00  0.00    +0.011 A 
ATOM      9  C   UNL     1      -2.484  -6.026   0.000  0.00  0.00    +0.008 A 
ATOM     10  C   UNL     1      -1.480  -7.141   0.000  0.00  0.00    +0.010 A 
ATOM     11  C   UNL     1      -0.013  -6.829   0.000  0.00  0.00    +0.001 A 
ATOM     12  C   UNL     1       0.450  -5.402   0.000  0.00  0.00    +0.002 A 
ATOM     13  C   UNL     1      -0.553  -4.288   0.000  0.00  0.00    +0.026 A 
ATOM     14  C   UNL     1      -2.021  -4.599   0.000  0.00  0.00    +0.050 A 
ATOM     15  N   UNL     1      -3.234  -3.718   0.000  0.00  0.00    -0.336 N 
ATOM     27  C   UNL     1      -4.448  -4.599   0.000  0.00  0.00    +0.054 A 
ATOM     28  C   UNL     1      -5.915  -4.288   0.000  0.00  0.00    -0.019 A 
ATOM     29  C   UNL     1      -6.378  -2.861   0.000  0.00  0.00    +0.046 C 
ATOM     30  C   UNL     1      -7.459  -7.944   0.000  0.00  0.00    +0.119 A 
ENDROOT
BRANCH  15  16
ATOM     16  C   UNL     1      -3.234  -2.218   0.000  0.00  0.00    +0.163 C 
BRANCH  16  17
ATOM     17  C   UNL     1      -1.935  -1.468   0.000  0.00  0.00    +0.254 C 
BRANCH  17  18
ATOM     18  O   UNL     1      -0.786  -2.432   0.000  0.00  0.00    -0.459 OA
BRANCH  18  19
ATOM     19  C   UNL     1       0.624  -1.919   0.000  0.00  0.00    +0.339 C 
ATOM     20  O   UNL     1       1.773  -2.883   0.000  0.00  0.00    -0.245 OA
BRANCH  19  21
ATOM     21  C   UNL     1       0.884  -0.442   0.000  0.00  0.00    +0.059 A 
ATOM     22  C   UNL     1       2.294   0.071   0.000  0.00  0.00    +0.015 A 
ATOM     23  C   UNL     1       2.554   1.549   0.000  0.00  0.00    +0.001 A 
ATOM     24  C   UNL     1       1.405   2.513   0.000  0.00  0.00    +0.000 A 
ATOM     25  C   UNL     1      -0.004   2.000   0.000  0.00  0.00    +0.001 A 
ATOM     26  C   UNL     1      -0.265   0.522   0.000  0.00  0.00    +0.015 A 
ENDBRANCH  19  21
ENDBRANCH  18  19
ENDBRANCH  17  18
ENDBRANCH  16  17
ENDBRANCH  15  16
TORSDOF 5