REMARK  Name = 15910
REMARK  4 active torsions:
REMARK  status: ('A' for Active; 'I' for Inactive)
REMARK    1  A    between atoms: C_7  and  S_11
REMARK    2  A    between atoms: C_8  and  C_15
REMARK    3  A    between atoms: C_10  and  C_19
REMARK    4  A    between atoms: S_11  and  O_14
REMARK                            x       y       z     vdW  Elec       q    Type
REMARK                         _______ _______ _______ _____ _____    ______ ____
ROOT
ATOM      1  O   UNL     1      -2.772  -4.199   0.000  0.00  0.00    -0.459 OA
ATOM      2  C   UNL     1      -1.473  -4.949   0.000  0.00  0.00    +0.360 C 
ATOM      7  O   UNL     1      -1.473  -6.449   0.000  0.00  0.00    -0.326 OA
ATOM      8  C   UNL     1      -2.772  -7.199   0.000  0.00  0.00    +0.207 C 
ATOM     13  C   UNL     1      -4.071  -6.449   0.000  0.00  0.00    +0.029 A 
ATOM     14  C   UNL     1      -5.370  -7.199   0.000  0.00  0.00    +0.039 A 
ATOM     15  C   UNL     1      -6.669  -6.449   0.000  0.00  0.00    +0.117 A 
ATOM     21  C   UNL     1      -6.669  -4.949   0.000  0.00  0.00    +0.033 A 
ATOM     22  C   UNL     1      -5.370  -4.199   0.000  0.00  0.00    +0.048 A 
ATOM     23  C   UNL     1      -4.071  -4.949   0.000  0.00  0.00    +0.130 A 
ENDROOT
BRANCH   2   3
ATOM      3  C   UNL     1      -0.174  -4.199   0.000  0.00  0.00    +0.252 C 
ATOM      4 CL   UNL     1       1.125  -3.449   0.000  0.00  0.00    -0.077 Cl
ATOM      5 CL   UNL     1       0.576  -5.498   0.000  0.00  0.00    -0.077 Cl
ATOM      6 CL   UNL     1      -0.924  -2.900   0.000  0.00  0.00    -0.077 Cl
ENDBRANCH   2   3
BRANCH   8   9
ATOM      9  C   UNL     1      -2.772  -8.699   0.000  0.00  0.00    +0.221 C 
ATOM     10 CL   UNL     1      -1.272  -8.699   0.000  0.00  0.00    -0.080 Cl
ATOM     11 CL   UNL     1      -2.772 -10.199   0.000  0.00  0.00    -0.080 Cl
ATOM     12 CL   UNL     1      -4.272  -8.699   0.000  0.00  0.00    -0.080 Cl
ENDBRANCH   8   9
BRANCH  15  16
ATOM     16  S   UNL     1      -7.968  -7.199   0.000  0.00  0.00    +0.110 S 
ATOM     19  O   UNL     1      -9.267  -7.949   0.000  0.00  0.00    -0.142 OA
ATOM     20  O   UNL     1      -8.718  -5.899   0.000  0.00  0.00    -0.142 OA
BRANCH  16  17
ATOM     17  O   UNL     1      -7.218  -8.498   0.000  0.00  0.00    -0.250 OA
ATOM     18  H   UNL     1      -7.703  -9.338   0.000  0.00  0.00    +0.245 HD
ENDBRANCH  16  17
ENDBRANCH  15  16
TORSDOF 4