REMARK  Name = 159242
REMARK  16 active torsions:
REMARK  status: ('A' for Active; 'I' for Inactive)
REMARK    1  A    between atoms: O_1  and  C_3
REMARK    2  A    between atoms: O_1  and  C_23
REMARK    3  A    between atoms: O_2  and  C_19
REMARK    4  A    between atoms: O_2  and  C_25
REMARK    5  A    between atoms: C_4  and  C_13
REMARK    6  A    between atoms: C_5  and  C_6
REMARK    7  A    between atoms: C_9  and  C_34
REMARK    8  A    between atoms: C_10  and  C_27
REMARK    9  A    between atoms: C_16  and  C_22
REMARK   10  A    between atoms: C_17  and  C_21
REMARK   11  A    between atoms: C_23  and  C_29
REMARK   12  A    between atoms: C_25  and  C_28
REMARK   13  A    between atoms: C_28  and  O_32
REMARK   14  A    between atoms: C_29  and  O_30
REMARK   15  A    between atoms: O_30  and  C_31
REMARK   16  A    between atoms: O_32  and  C_33
REMARK                            x       y       z     vdW  Elec       q    Type
REMARK                         _______ _______ _______ _____ _____    ______ ____
ROOT
ATOM      7  C   UNL     1      -9.468  -1.400   0.000  0.00  0.00    +0.147 A 
ATOM      8  C   UNL     1      -8.169  -2.150   0.000  0.00  0.00    +0.029 A 
ATOM     17  C   UNL     1      -8.169  -3.650   0.000  0.00  0.00    +0.058 A 
ATOM     18  C   UNL     1      -9.468  -4.399   0.000  0.00  0.00    +0.133 A 
ATOM     19  C   UNL     1     -10.767  -3.650   0.000  0.00  0.00    +0.058 A 
ATOM     26  C   UNL     1     -10.767  -2.150   0.000  0.00  0.00    +0.029 A 
ENDROOT
BRANCH   8   9
ATOM      9  C   UNL     1      -6.870  -1.400   0.000  0.00  0.00    -0.011 A 
ATOM     10  C   UNL     1      -6.870   0.101   0.000  0.00  0.00    +0.009 A 
ATOM     11  C   UNL     1      -5.571   0.851   0.000  0.00  0.00    +0.004 A 
ATOM     12  C   UNL     1      -4.272   0.101   0.000  0.00  0.00    -0.050 A 
ATOM     13  C   UNL     1      -2.973   0.851   0.000  0.00  0.00    +0.044 C 
ATOM     14  C   UNL     1      -4.272  -1.400   0.000  0.00  0.00    +0.007 A 
ATOM     15  C   UNL     1      -5.571  -2.150   0.000  0.00  0.00    -0.042 A 
ATOM     16  C   UNL     1      -5.571  -3.650   0.000  0.00  0.00    +0.044 C 
ENDBRANCH   8   9
BRANCH  26  27
ATOM     27  C   UNL     1     -12.066  -1.400   0.000  0.00  0.00    -0.011 A 
ATOM     28  C   UNL     1     -12.066   0.100   0.000  0.00  0.00    +0.009 A 
ATOM     29  C   UNL     1     -13.365   0.850   0.000  0.00  0.00    +0.004 A 
ATOM     30  C   UNL     1     -14.664   0.100   0.000  0.00  0.00    -0.050 A 
ATOM     31  C   UNL     1     -15.964   0.850   0.000  0.00  0.00    +0.044 C 
ATOM     32  C   UNL     1     -14.664  -1.400   0.000  0.00  0.00    +0.007 A 
ATOM     33  C   UNL     1     -13.365  -2.150   0.000  0.00  0.00    -0.042 A 
ATOM     34  C   UNL     1     -13.365  -3.650   0.000  0.00  0.00    +0.044 C 
ENDBRANCH  26  27
BRANCH   7   1
ATOM      1  O   UNL     1      -9.468   0.101   0.000  0.00  0.00    -0.423 OA
BRANCH   1   2
ATOM      2  C   UNL     1      -8.504   1.250   0.000  0.00  0.00    +0.338 C 
ATOM      6  O   UNL     1      -7.027   0.989   0.000  0.00  0.00    -0.248 OA
BRANCH   2   3
ATOM      3  C   UNL     1      -9.017   2.659   0.000  0.00  0.00    +0.280 C 
BRANCH   3   4
ATOM      4  O   UNL     1      -8.053   3.808   0.000  0.00  0.00    -0.372 OA
ATOM      5  C   UNL     1      -6.576   3.548   0.000  0.00  0.00    +0.194 C 
ENDBRANCH   3   4
ENDBRANCH   2   3
ENDBRANCH   1   2
ENDBRANCH   7   1
BRANCH  18  20
ATOM     20  O   UNL     1      -9.468  -5.900   0.000  0.00  0.00    -0.424 OA
BRANCH  20  21
ATOM     21  C   UNL     1      -8.169  -6.650   0.000  0.00  0.00    +0.338 C 
ATOM     25  O   UNL     1      -6.870  -5.900   0.000  0.00  0.00    -0.248 OA
BRANCH  21  22
ATOM     22  C   UNL     1      -8.169  -8.150   0.000  0.00  0.00    +0.280 C 
BRANCH  22  23
ATOM     23  O   UNL     1      -6.870  -8.900   0.000  0.00  0.00    -0.372 OA
ATOM     24  C   UNL     1      -5.571  -8.150   0.000  0.00  0.00    +0.194 C 
ENDBRANCH  22  23
ENDBRANCH  21  22
ENDBRANCH  20  21
ENDBRANCH  18  20
TORSDOF 10