REMARK  Name = 155196
REMARK  2 active torsions:
REMARK  status: ('A' for Active; 'I' for Inactive)
REMARK    1  A    between atoms: C_9  and  C_11
REMARK    2  A    between atoms: C_11  and  C_12
REMARK                            x       y       z     vdW  Elec       q    Type
REMARK                         _______ _______ _______ _____ _____    ______ ____
ROOT
ATOM      1  N   UNL     1      -5.946  -0.750   0.000  0.00  0.00    -0.248 NA
ATOM      2  C   UNL     1      -7.245  -1.500   0.000  0.00  0.00    +0.090 A 
ATOM      3  C   UNL     1      -7.245  -3.000   0.000  0.00  0.00    +0.089 A 
ATOM      4  C   UNL     1      -8.544  -3.750   0.000  0.00  0.00    +0.030 A 
ATOM      5  C   UNL     1      -9.843  -3.000   0.000  0.00  0.00    +0.002 A 
ATOM      6  C   UNL     1      -9.843  -1.500   0.000  0.00  0.00    +0.002 A 
ATOM      7  N   UNL     1      -5.946  -3.750   0.000  0.00  0.00    -0.252 NA
ATOM      8  C   UNL     1      -4.647  -3.000   0.000  0.00  0.00    +0.135 A 
ATOM      9  C   UNL     1      -8.544  -0.750   0.000  0.00  0.00    +0.030 A 
ATOM     10  C   UNL     1      -4.647  -1.500   0.000  0.00  0.00    +0.074 A 
ENDROOT
BRANCH  10  11
ATOM     11  C   UNL     1      -3.348  -0.750   0.000  0.00  0.00    +0.175 C 
BRANCH  11  12
ATOM     12  C   UNL     1      -2.049  -1.500   0.000  0.00  0.00    +0.069 C 
ATOM     13  N   UNL     1      -0.750  -2.250   0.000  0.00  0.00    -0.196 NA
ENDBRANCH  11  12
ENDBRANCH  10  11
TORSDOF 2