REMARK  Name = 16416
REMARK  5 active torsions:
REMARK  status: ('A' for Active; 'I' for Inactive)
REMARK    1  A    between atoms: C_3  and  C_14
REMARK    2  A    between atoms: C_7  and  O_13
REMARK    3  A    between atoms: C_7  and  C_14
REMARK    4  A    between atoms: C_14  and  C_15
REMARK    5  A    between atoms: C_15  and  O_17
REMARK                            x       y       z     vdW  Elec       q    Type
REMARK                         _______ _______ _______ _____ _____    ______ ____
ROOT
ATOM      3  C   UNL     1       5.594  -1.702   0.000  0.00  0.00    +0.159 C 
ENDROOT
BRANCH   3   2
ATOM      1  C   UNL     1       8.192  -1.702   0.000  0.00  0.00    +0.004 A 
ATOM      2  C   UNL     1       6.893  -2.451   0.000  0.00  0.00    -0.031 A 
ATOM     16  C   UNL     1       6.893  -3.951   0.000  0.00  0.00    +0.004 A 
ATOM     17  C   UNL     1       8.192  -4.702   0.000  0.00  0.00    +0.000 A 
ATOM     18  C   UNL     1       9.491  -3.951   0.000  0.00  0.00    +0.000 A 
ATOM     19  C   UNL     1       9.491  -2.451   0.000  0.00  0.00    +0.000 A 
ENDBRANCH   3   2
BRANCH   3   8
ATOM      8  C   UNL     1       5.594  -0.202   0.000  0.00  0.00    +0.083 C 
ATOM     11  C   UNL     1       4.117  -0.462   0.000  0.00  0.00    +0.036 C 
ATOM     12  C   UNL     1       3.152   0.687   0.000  0.00  0.00    +0.003 C 
ATOM     13  C   UNL     1       3.665   2.097   0.000  0.00  0.00    +0.000 C 
ATOM     14  C   UNL     1       5.143   2.357   0.000  0.00  0.00    +0.003 C 
ATOM     15  C   UNL     1       6.107   1.208   0.000  0.00  0.00    +0.036 C 
BRANCH   8   9
ATOM      9  O   UNL     1       7.071  -0.462   0.000  0.00  0.00    -0.387 OA
ATOM     10  H   UNL     1       7.403  -1.374   0.000  0.00  0.00    +0.210 HD
ENDBRANCH   8   9
ENDBRANCH   3   8
BRANCH   3   4
ATOM      4  C   UNL     1       4.295  -2.451   0.000  0.00  0.00    +0.315 C 
ATOM      7  O   UNL     1       2.996  -1.702   0.000  0.00  0.00    -0.250 OA
BRANCH   4   5
ATOM      5  O   UNL     1       4.295  -3.951   0.000  0.00  0.00    -0.480 OA
ATOM      6  H   UNL     1       3.483  -4.420   0.000  0.00  0.00    +0.295 HD
ENDBRANCH   4   5
ENDBRANCH   3   4
TORSDOF 5