REMARK  Name = 352890
REMARK  5 active torsions:
REMARK  status: ('A' for Active; 'I' for Inactive)
REMARK    1  A    between atoms: C_4  and  C_19
REMARK    2  A    between atoms: C_5  and  O_17
REMARK    3  A    between atoms: C_10  and  C_12
REMARK    4  A    between atoms: C_11  and  O_20
REMARK    5  A    between atoms: O_16  and  C_19
REMARK                            x       y       z     vdW  Elec       q    Type
REMARK                         _______ _______ _______ _____ _____    ______ ____
ROOT
ATOM      1 CL   UNL     1       4.148  -0.457   0.000  0.00  0.00    -0.145 Cl
ATOM      2  H   UNL     1       5.478  -0.457   0.000  0.00  0.00    +0.145 HD
ENDROOT
TORSDOF 0