REMARK  Name = 357683
REMARK  2 active torsions:
REMARK  status: ('A' for Active; 'I' for Inactive)
REMARK    1  A    between atoms: O_1  and  C_2
REMARK    2  A    between atoms: C_12  and  C_14
REMARK                            x       y       z     vdW  Elec       q    Type
REMARK                         _______ _______ _______ _____ _____    ______ ____
ROOT
ATOM      3  C   UNL     1      -2.014  -8.850   0.000  0.00  0.00    +0.188 C 
ATOM      4  C   UNL     1      -1.404 -10.221   0.000  0.00  0.00    +0.015 C 
ATOM      5  C   UNL     1       0.088 -10.064   0.000  0.00  0.00    -0.016 C 
ATOM      6  C   UNL     1       0.400  -8.597   0.000  0.00  0.00    +0.104 C 
ATOM      7  C   UNL     1       1.698  -7.847   0.000  0.00  0.00    +0.375 C 
ATOM      8  O   UNL     1      -0.276 -10.781   0.000  0.00  0.00    -0.422 OA
ATOM      9  O   UNL     1       1.698  -6.347   0.000  0.00  0.00    -0.448 OA
ATOM     10  C   UNL     1       0.400  -5.597   0.000  0.00  0.00    +0.183 C 
ATOM     16  C   UNL     1      -0.899  -6.347   0.000  0.00  0.00    +0.032 C 
ATOM     17  C   UNL     1      -1.702 -10.318   0.000  0.00  0.00    +0.347 C 
ATOM     18  O   UNL     1      -2.817 -11.321   0.000  0.00  0.00    -0.247 OA
ATOM     19  C   UNL     1      -0.899  -7.847   0.000  0.00  0.00    +0.076 C 
ENDROOT
BRANCH  10  11
ATOM     11  C   UNL     1       0.400  -4.097   0.000  0.00  0.00    +0.276 C 
ATOM     12  O   UNL     1      -0.900  -3.347   0.000  0.00  0.00    -0.267 OA
ATOM     13  N   UNL     1       1.698  -3.347   0.000  0.00  0.00    -0.323 N 
ATOM     14  H   UNL     1       2.998  -4.097   0.000  0.00  0.00    +0.145 HD
ATOM     15  H   UNL     1       1.698  -1.847   0.000  0.00  0.00    +0.145 HD
ENDBRANCH  10  11
BRANCH   3   1
ATOM      1  O   UNL     1      -3.441  -8.387   0.000  0.00  0.00    -0.373 OA
ATOM      2  H   UNL     1      -4.556  -9.390   0.000  0.00  0.00    +0.211 HD
ENDBRANCH   3   1
TORSDOF 2