REMARK  Name = 360861
REMARK  7 active torsions:
REMARK  status: ('A' for Active; 'I' for Inactive)
REMARK    1  A    between atoms: C_1  and  C_2
REMARK    2  A    between atoms: C_9  and  C_15
REMARK    3  A    between atoms: C_9  and  C_16
REMARK    4  A    between atoms: C_15  and  O_20
REMARK    5  A    between atoms: C_19  and  C_22
REMARK    6  A    between atoms: O_20  and  C_23
REMARK    7  A    between atoms: C_22  and  O_24
REMARK                            x       y       z     vdW  Elec       q    Type
REMARK                         _______ _______ _______ _____ _____    ______ ____
ROOT
ATOM      1  C   UNL     1       4.038   8.471   0.000  0.00  0.00    +0.012 C 
ATOM      2  C   UNL     1       4.034   6.971   0.000  0.00  0.00    -0.025 C 
ATOM      3  C   UNL     1       2.737   7.725   0.000  0.00  0.00    +0.007 C 
ATOM      4  C   UNL     1       1.436   6.978   0.000  0.00  0.00    +0.002 C 
ATOM      5  C   UNL     1       1.432   5.478   0.000  0.00  0.00    +0.018 C 
ATOM      6  C   UNL     1       2.729   4.725   0.000  0.00  0.00    +0.068 C 
ATOM      7  C   UNL     1       3.690   3.573   0.000  0.00  0.00    +0.023 C 
ATOM     12  C   UNL     1       4.030   5.471   0.000  0.00  0.00    +0.012 C 
ATOM     13  C   UNL     1       5.327   4.718   0.000  0.00  0.00    +0.006 C 
ATOM     14  C   UNL     1       6.628   5.464   0.000  0.00  0.00    +0.011 C 
ATOM     15  C   UNL     1       6.632   6.964   0.000  0.00  0.00    -0.007 C 
ATOM     16  C   UNL     1       8.080   6.572   0.000  0.00  0.00    -0.018 C 
ATOM     17  C   UNL     1       8.833   7.869   0.000  0.00  0.00    -0.045 C 
ATOM     18  C   UNL     1       7.937   9.211   0.000  0.00  0.00    +0.018 C 
ATOM     19  C   UNL     1       6.640   9.964   0.000  0.00  0.00    +0.008 C 
ATOM     20  C   UNL     1       5.339   9.218   0.000  0.00  0.00    +0.005 C 
ATOM     24  C   UNL     1       6.636   8.464   0.000  0.00  0.00    +0.019 C 
ATOM     25  C   UNL     1       5.335   7.718   0.000  0.00  0.00    +0.005 C 
ENDROOT
BRANCH   6   8
ATOM      8  C   UNL     1       1.761   3.578   0.000  0.00  0.00    +0.313 C 
ATOM      9  O   UNL     1       2.271   2.168   0.000  0.00  0.00    -0.250 OA
BRANCH   8  10
ATOM     10  O   UNL     1       0.285   3.843   0.000  0.00  0.00    -0.468 OA
ATOM     11  C   UNL     1      -0.682   2.696   0.000  0.00  0.00    +0.280 C 
ENDBRANCH   8  10
ENDBRANCH   6   8
BRANCH  17  21
ATOM     21  C   UNL     1      10.332   7.916   0.000  0.00  0.00    +0.186 C 
BRANCH  21  22
ATOM     22  O   UNL     1      11.041   9.238   0.000  0.00  0.00    -0.391 OA
ATOM     23  H   UNL     1      12.541   9.285   0.000  0.00  0.00    +0.210 HD
ENDBRANCH  21  22
ENDBRANCH  17  21
TORSDOF 4