REMARK  Name = 343513
REMARK  8 active torsions:
REMARK  status: ('A' for Active; 'I' for Inactive)
REMARK    1  A    between atoms: C_7  and  C_23
REMARK    2  A    between atoms: C_8  and  C_23
REMARK    3  A    between atoms: N_13  and  C_25
REMARK    4  A    between atoms: C_15  and  C_16
REMARK    5  A    between atoms: C_15  and  C_27
REMARK    6  A    between atoms: C_23  and  O_24
REMARK    7  A    between atoms: C_25  and  C_26
REMARK    8  A    between atoms: C_26  and  C_27
REMARK                            x       y       z     vdW  Elec       q    Type
REMARK                         _______ _______ _______ _____ _____    ______ ____
ROOT
ATOM      9  C   UNL     1       4.774   6.221   0.000  0.00  0.00    +0.024 C 
ATOM     10  C   UNL     1       6.274   6.221   0.000  0.00  0.00    +0.022 C 
ATOM     11  C   UNL     1       7.024   7.520   0.000  0.00  0.00    +0.085 C 
ATOM     12  N   UNL     1       6.274   8.819   0.000  0.00  0.00    -0.302 NA
ATOM     25  C   UNL     1       4.774   8.819   0.000  0.00  0.00    +0.085 C 
ATOM     26  C   UNL     1       4.024   7.520   0.000  0.00  0.00    +0.022 C 
ENDROOT
BRANCH   9   6
ATOM      6  C   UNL     1       4.024   4.922   0.000  0.00  0.00    +0.148 C 
BRANCH   6   5
ATOM      1  F   UNL     1      -1.976   4.922   0.000  0.00  0.00    -0.205 F 
ATOM      2  C   UNL     1      -0.475   4.922   0.000  0.00  0.00    +0.123 A 
ATOM      3  C   UNL     1       0.275   3.623   0.000  0.00  0.00    +0.039 A 
ATOM      4  C   UNL     1       1.775   3.623   0.000  0.00  0.00    +0.009 A 
ATOM      5  C   UNL     1       2.525   4.922   0.000  0.00  0.00    -0.019 A 
ATOM     27  C   UNL     1       1.775   6.221   0.000  0.00  0.00    +0.009 A 
ATOM     28  C   UNL     1       0.275   6.221   0.000  0.00  0.00    +0.039 A 
ENDBRANCH   6   5
BRANCH   6   7
ATOM      7  O   UNL     1       4.774   3.623   0.000  0.00  0.00    -0.387 OA
ATOM      8  H   UNL     1       4.290   2.783   0.000  0.00  0.00    +0.210 HD
ENDBRANCH   6   7
ENDBRANCH   9   6
BRANCH  12  13
ATOM     13  C   UNL     1       7.024  10.118   0.000  0.00  0.00    +0.085 C 
BRANCH  13  14
ATOM     14  C   UNL     1       6.274  11.417   0.000  0.00  0.00    +0.023 C 
BRANCH  14  15
ATOM     15  C   UNL     1       7.024  12.716   0.000  0.00  0.00    +0.081 C 
BRANCH  15  16
ATOM     16  C   UNL     1       8.524  12.716   0.000  0.00  0.00    +0.163 C 
ATOM     24  O   UNL     1       9.274  14.015   0.000  0.00  0.00    -0.292 OA
BRANCH  16  17
ATOM     17  C   UNL     1       9.274  11.417   0.000  0.00  0.00    +0.018 A 
ATOM     18  C   UNL     1       8.524  10.118   0.000  0.00  0.00    +0.014 A 
ATOM     19  C   UNL     1       9.274   8.819   0.000  0.00  0.00    +0.039 A 
ATOM     20  C   UNL     1      10.775   8.819   0.000  0.00  0.00    +0.123 A 
ATOM     21  F   UNL     1      11.525   7.520   0.000  0.00  0.00    -0.205 F 
ATOM     22  C   UNL     1      11.525  10.118   0.000  0.00  0.00    +0.039 A 
ATOM     23  C   UNL     1      10.775  11.417   0.000  0.00  0.00    +0.014 A 
ENDBRANCH  16  17
ENDBRANCH  15  16
ENDBRANCH  14  15
ENDBRANCH  13  14
ENDBRANCH  12  13
TORSDOF 8