REMARK  Name = 333856
REMARK  33 active torsions:
REMARK  status: ('A' for Active; 'I' for Inactive)
REMARK    1  A    between atoms: C_9  and  O_14
REMARK    2  A    between atoms: C_10  and  O_16
REMARK    3  A    between atoms: C_12  and  C_19
REMARK    4  A    between atoms: C_15  and  C_20
REMARK    5  A    between atoms: C_18  and  C_23
REMARK    6  A    between atoms: C_24  and  O_30
REMARK    7  A    between atoms: C_27  and  C_34
REMARK    8  A    between atoms: C_29  and  C_36
REMARK    9  A    between atoms: O_30  and  C_38
REMARK   10  A    between atoms: C_32  and  O_39
REMARK   11  A    between atoms: O_39  and  C_43
REMARK   12  A    between atoms: C_40  and  C_44
REMARK   13  A    between atoms: C_45  and  N_49
REMARK   14  A    between atoms: C_45  and  C_50
REMARK   15  A    between atoms: C_46  and  C_52
REMARK   16  A    between atoms: C_51  and  N_57
REMARK   17  A    between atoms: C_53  and  O_58
REMARK   18  A    between atoms: C_54  and  C_60
REMARK   19  A    between atoms: O_58  and  C_62
REMARK   20  A    between atoms: C_59  and  O_63
REMARK   21  A    between atoms: C_61  and  O_64
REMARK   22  A    between atoms: O_63  and  C_68
REMARK   23  A    between atoms: O_64  and  C_69
REMARK   24  A    between atoms: C_68  and  C_72
REMARK   25  A    between atoms: C_70  and  C_74
REMARK   26  A    between atoms: C_75  and  O_76
REMARK   27  A    between atoms: O_76  and  C_77
REMARK   28  A    between atoms: C_80  and  O_82
REMARK   29  A    between atoms: C_81  and  C_84
REMARK   30  A    between atoms: C_83  and  O_85
REMARK   31  A    between atoms: O_85  and  C_86
REMARK   32  A    between atoms: C_89  and  C_91
REMARK   33  A    between atoms: C_92  and  O_93
REMARK                            x       y       z     vdW  Elec       q    Type
REMARK                         _______ _______ _______ _____ _____    ______ ____
ROOT
ATOM      1  O   UNL     1     -22.027 -12.698   0.000  0.00  0.00    -0.287 OA
ATOM      2  C   UNL     1     -21.639 -11.250   0.000  0.00  0.00    +0.218 C 
ATOM      3  C   UNL     1     -20.139 -11.250   0.000  0.00  0.00    +0.143 C 
ATOM      4  C   UNL     1     -18.840 -12.000   0.000  0.00  0.00    +0.119 C 
ATOM      5  C   UNL     1     -18.090 -13.299   0.000  0.00  0.00    +0.039 C 
ATOM      6  C   UNL     1     -18.090 -14.799   0.000  0.00  0.00    +0.050 C 
ATOM      7  C   UNL     1     -18.840 -16.098   0.000  0.00  0.00    -0.069 C 
ATOM      8  C   UNL     1     -20.139 -16.848   0.000  0.00  0.00    -0.024 C 
ATOM      9  C   UNL     1     -21.639 -16.848   0.000  0.00  0.00    +0.063 C 
ATOM     10  C   UNL     1     -22.938 -16.098   0.000  0.00  0.00    +0.151 C 
ATOM     29  C   UNL     1     -23.688 -14.799   0.000  0.00  0.00    -0.047 C 
ATOM     30  C   UNL     1     -25.137 -15.187   0.000  0.00  0.00    +0.041 C 
ATOM     31  C   UNL     1     -23.688 -13.299   0.000  0.00  0.00    -0.015 C 
ATOM     32  C   UNL     1     -22.938 -12.000   0.000  0.00  0.00    +0.096 C 
ATOM     33  C   UNL     1     -24.237 -12.750   0.000  0.00  0.00    +0.149 C 
ATOM     34  C   UNL     1     -25.536 -12.000   0.000  0.00  0.00    +0.011 C 
ATOM     35  C   UNL     1     -25.536 -10.500   0.000  0.00  0.00    -0.005 C 
ATOM     38  C   UNL     1     -24.237  -9.750   0.000  0.00  0.00    +0.095 C 
ATOM     41  C   UNL     1     -17.779 -17.158   0.000  0.00  0.00    +0.039 C 
ATOM     42  C   UNL     1     -16.791 -15.549   0.000  0.00  0.00    -0.022 C 
ATOM     43  C   UNL     1     -15.492 -14.799   0.000  0.00  0.00    -0.024 C 
ATOM     44  C   UNL     1     -15.492 -13.299   0.000  0.00  0.00    +0.045 C 
ATOM     45  C   UNL     1     -14.193 -12.549   0.000  0.00  0.00    +0.131 C 
ATOM     46  C   UNL     1     -14.193 -11.049   0.000  0.00  0.00    +0.016 C 
ATOM     47  C   UNL     1     -15.492 -10.299   0.000  0.00  0.00    +0.009 C 
ATOM     48  C   UNL     1     -16.791 -11.049   0.000  0.00  0.00    -0.009 C 
ATOM     49  C   UNL     1     -18.090 -10.299   0.000  0.00  0.00    +0.008 C 
ATOM     50  C   UNL     1     -12.894 -10.299   0.000  0.00  0.00    +0.010 C 
ATOM     91  C   UNL     1     -16.791 -12.549   0.000  0.00  0.00    +0.015 C 
ATOM     92  C   UNL     1     -19.539 -13.687   0.000  0.00  0.00    +0.020 C 
ATOM     95  C   UNL     1     -20.915  -9.502   0.000  0.00  0.00    +0.347 C 
ATOM     96  O   UNL     1     -22.364  -9.114   0.000  0.00  0.00    -0.445 OA
ATOM     97  O   UNL     1     -19.941  -8.362   0.000  0.00  0.00    -0.245 OA
ATOM     98  C   UNL     1     -22.938 -10.500   0.000  0.00  0.00    +0.189 C 
ENDROOT
BRANCH  35  36
ATOM     36  C   UNL     1     -26.835  -9.750   0.000  0.00  0.00    +0.254 C 
ATOM     37  O   UNL     1     -28.134 -10.500   0.000  0.00  0.00    -0.296 OA
ENDBRANCH  35  36
BRANCH  33  39
ATOM     39  O   UNL     1     -24.750 -14.159   0.000  0.00  0.00    -0.387 OA
ATOM     40  H   UNL     1     -26.227 -14.420   0.000  0.00  0.00    +0.210 HD
ENDBRANCH  33  39
BRANCH   4  93
ATOM     93  O   UNL     1     -17.779 -10.939   0.000  0.00  0.00    -0.510 OA
ATOM     94  H   UNL     1     -16.874 -11.182   0.000  0.00  0.00    +0.292 HD
ENDBRANCH   4  93
BRANCH  10  11
ATOM     11  O   UNL     1     -23.999 -17.158   0.000  0.00  0.00    -0.343 OA
BRANCH  11  12
ATOM     12  C   UNL     1     -23.610 -18.607   0.000  0.00  0.00    +0.258 C 
ATOM     13  O   UNL     1     -24.671 -19.668   0.000  0.00  0.00    -0.346 OA
ATOM     14  C   UNL     1     -24.283 -21.117   0.000  0.00  0.00    +0.145 C 
ATOM     15  C   UNL     1     -22.834 -21.505   0.000  0.00  0.00    +0.182 C 
ATOM     22  C   UNL     1     -21.773 -20.444   0.000  0.00  0.00    +0.248 C 
ATOM     23  C   UNL     1     -20.913 -21.673   0.000  0.00  0.00    +0.098 C 
ATOM     27  C   UNL     1     -25.344 -22.177   0.000  0.00  0.00    +0.040 C 
ATOM     28  C   UNL     1     -22.162 -18.996   0.000  0.00  0.00    +0.148 C 
BRANCH  15  16
ATOM     16  N   UNL     1     -22.446 -22.954   0.000  0.00  0.00    -0.269 N 
ATOM     17  H   UNL     1     -21.495 -23.209   0.000  0.00  0.00    +0.153 HD
ATOM     18  C   UNL     1     -23.506 -24.015   0.000  0.00  0.00    +0.401 C 
ATOM     19  O   UNL     1     -24.955 -23.626   0.000  0.00  0.00    -0.226 OA
BRANCH  18  20
ATOM     20  O   UNL     1     -23.118 -25.464   0.000  0.00  0.00    -0.454 OA
ATOM     21  C   UNL     1     -24.179 -26.524   0.000  0.00  0.00    +0.282 C 
ENDBRANCH  18  20
ENDBRANCH  15  16
BRANCH  22  24
ATOM     24  N   UNL     1     -20.414 -19.811   0.000  0.00  0.00    +0.046 N 
ATOM     25  O   UNL     1     -19.185 -20.671   0.000  0.00  0.00    +0.035 OA
ATOM     26  O   UNL     1     -20.283 -18.316   0.000  0.00  0.00    -0.581 OA
ENDBRANCH  22  24
ENDBRANCH  11  12
ENDBRANCH  10  11
BRANCH  45  51
ATOM     51  O   UNL     1     -12.894 -13.299   0.000  0.00  0.00    -0.347 OA
BRANCH  51  52
ATOM     52  C   UNL     1     -11.595 -12.549   0.000  0.00  0.00    +0.254 C 
ATOM     53  O   UNL     1     -10.296 -13.299   0.000  0.00  0.00    -0.345 OA
ATOM     54  C   UNL     1      -8.997 -12.549   0.000  0.00  0.00    +0.161 C 
ATOM     55  C   UNL     1      -8.997 -11.049   0.000  0.00  0.00    +0.234 C 
ATOM     60  C   UNL     1     -10.296 -10.299   0.000  0.00  0.00    +0.169 C 
ATOM     89  C   UNL     1      -7.698 -13.299   0.000  0.00  0.00    +0.042 C 
ATOM     90  C   UNL     1     -11.595 -11.049   0.000  0.00  0.00    +0.096 C 
BRANCH  55  56
ATOM     56  O   UNL     1      -7.698 -10.299   0.000  0.00  0.00    -0.456 OA
BRANCH  56  57
ATOM     57  C   UNL     1      -6.399 -11.049   0.000  0.00  0.00    +0.304 C 
ATOM     58  O   UNL     1      -6.399 -12.549   0.000  0.00  0.00    -0.251 OA
ATOM     59  C   UNL     1      -5.100 -10.299   0.000  0.00  0.00    +0.136 C 
ENDBRANCH  56  57
ENDBRANCH  55  56
BRANCH  60  61
ATOM     61  O   UNL     1     -10.296  -8.799   0.000  0.00  0.00    -0.344 OA
BRANCH  61  62
ATOM     62  C   UNL     1      -8.997  -8.049   0.000  0.00  0.00    +0.251 C 
ATOM     63  C   UNL     1      -7.698  -8.799   0.000  0.00  0.00    +0.064 C 
ATOM     64  C   UNL     1      -6.399  -8.049   0.000  0.00  0.00    +0.039 C 
ATOM     65  C   UNL     1      -6.399  -6.549   0.000  0.00  0.00    +0.150 C 
ATOM     86  C   UNL     1      -7.698  -5.799   0.000  0.00  0.00    +0.147 C 
ATOM     87  C   UNL     1      -7.698  -4.299   0.000  0.00  0.00    +0.040 C 
ATOM     88  O   UNL     1      -8.997  -6.549   0.000  0.00  0.00    -0.346 OA
BRANCH  65  66
ATOM     66  O   UNL     1      -5.100  -5.799   0.000  0.00  0.00    -0.345 OA
BRANCH  66  67
ATOM     67  C   UNL     1      -3.801  -6.549   0.000  0.00  0.00    +0.254 C 
ATOM     68  O   UNL     1      -3.801  -8.049   0.000  0.00  0.00    -0.346 OA
ATOM     69  C   UNL     1      -2.502  -8.799   0.000  0.00  0.00    +0.150 C 
ATOM     70  C   UNL     1      -1.202  -8.049   0.000  0.00  0.00    +0.178 C 
ATOM     81  C   UNL     1      -1.202  -6.549   0.000  0.00  0.00    +0.151 C 
ATOM     84  C   UNL     1      -2.502 -10.299   0.000  0.00  0.00    +0.041 C 
ATOM     85  C   UNL     1      -2.502  -5.799   0.000  0.00  0.00    +0.095 C 
BRANCH  81  82
ATOM     82  O   UNL     1       0.097  -5.799   0.000  0.00  0.00    -0.389 OA
ATOM     83  H   UNL     1       1.396  -6.549   0.000  0.00  0.00    +0.210 HD
ENDBRANCH  81  82
BRANCH  70  71
ATOM     71  O   UNL     1       0.097  -8.799   0.000  0.00  0.00    -0.343 OA
BRANCH  71  72
ATOM     72  C   UNL     1       0.097 -10.299   0.000  0.00  0.00    +0.251 C 
ATOM     73  C   UNL     1      -1.202 -11.049   0.000  0.00  0.00    +0.064 C 
ATOM     74  C   UNL     1      -1.202 -12.549   0.000  0.00  0.00    +0.039 C 
ATOM     75  C   UNL     1       0.097 -13.299   0.000  0.00  0.00    +0.143 C 
ATOM     78  C   UNL     1       1.396 -12.549   0.000  0.00  0.00    +0.147 C 
ATOM     79  C   UNL     1       2.695 -13.299   0.000  0.00  0.00    +0.040 C 
ATOM     80  O   UNL     1       1.396 -11.049   0.000  0.00  0.00    -0.346 OA
BRANCH  75  76
ATOM     76  O   UNL     1       0.097 -14.799   0.000  0.00  0.00    -0.389 OA
ATOM     77  H   UNL     1      -1.202 -15.549   0.000  0.00  0.00    +0.210 HD
ENDBRANCH  75  76
ENDBRANCH  71  72
ENDBRANCH  70  71
ENDBRANCH  66  67
ENDBRANCH  65  66
ENDBRANCH  61  62
ENDBRANCH  60  61
ENDBRANCH  51  52
ENDBRANCH  45  51
TORSDOF 20