REMARK  Name = 330516
REMARK  14 active torsions:
REMARK  status: ('A' for Active; 'I' for Inactive)
REMARK    1  A    between atoms: O_1  and  C_7
REMARK    2  A    between atoms: O_1  and  C_27
REMARK    3  A    between atoms: O_2  and  C_10
REMARK    4  A    between atoms: O_2  and  C_28
REMARK    5  A    between atoms: O_3  and  C_6
REMARK    6  A    between atoms: O_3  and  C_29
REMARK    7  A    between atoms: C_13  and  O_14
REMARK    8  A    between atoms: O_14  and  C_30
REMARK    9  A    between atoms: C_21  and  O_24
REMARK   10  A    between atoms: C_22  and  C_32
REMARK   11  A    between atoms: C_22  and  O_33
REMARK   12  A    between atoms: C_23  and  C_31
REMARK   13  A    between atoms: O_24  and  C_25
REMARK   14  A    between atoms: C_25  and  C_34
REMARK                            x       y       z     vdW  Elec       q    Type
REMARK                         _______ _______ _______ _____ _____    ______ ____
ROOT
ATOM      3  C   UNL     1      -6.045 -12.091   0.000  0.00  0.00    +0.173 A 
ATOM      4  C   UNL     1      -6.045 -13.591   0.000  0.00  0.00    +0.208 A 
ATOM      5  C   UNL     1      -4.746 -14.341   0.000  0.00  0.00    +0.170 A 
ATOM      6  C   UNL     1      -3.447 -13.591   0.000  0.00  0.00    +0.054 A 
ATOM      7  C   UNL     1      -3.447 -12.091   0.000  0.00  0.00    -0.032 A 
ATOM      8  C   UNL     1      -1.998 -11.703   0.000  0.00  0.00    +0.042 C 
ATOM      9  C   UNL     1      -1.248 -10.404   0.000  0.00  0.00    +0.026 C 
ATOM     10  C   UNL     1       0.239 -10.600   0.000  0.00  0.00    +0.011 C 
ATOM     11  C   UNL     1      -1.636  -8.955   0.000  0.00  0.00    +0.107 C 
ATOM     14  C   UNL     1      -0.136  -8.955   0.000  0.00  0.00    +0.046 C 
ATOM     15  C   UNL     1      -2.935  -8.205   0.000  0.00  0.00    +0.239 C 
ATOM     25  C   UNL     1      -4.384  -8.593   0.000  0.00  0.00    +0.011 A 
ATOM     26  C   UNL     1      -5.134  -7.294   0.000  0.00  0.00    +0.057 A 
ATOM     27  C   UNL     1      -6.634  -7.294   0.000  0.00  0.00    +0.166 A 
ATOM     30  C   UNL     1      -7.384  -8.593   0.000  0.00  0.00    +0.204 A 
ATOM     31  C   UNL     1      -6.634  -9.892   0.000  0.00  0.00    +0.173 A 
ATOM     36  C   UNL     1      -5.134  -9.892   0.000  0.00  0.00    +0.038 A 
ATOM     37  O   UNL     1      -5.058 -15.808   0.000  0.00  0.00    -0.452 OA
ATOM     38  C   UNL     1      -6.549 -15.965   0.000  0.00  0.00    +0.467 C 
ATOM     39  O   UNL     1      -7.159 -14.595   0.000  0.00  0.00    -0.449 OA
ATOM     40  C   UNL     1      -4.746 -11.341   0.000  0.00  0.00    +0.035 A 
ENDROOT
BRANCH   3   1
ATOM      1  O   UNL     1      -7.545 -12.091   0.000  0.00  0.00    -0.491 OA
ATOM      2  C   UNL     1      -8.295 -13.390   0.000  0.00  0.00    +0.277 C 
ENDBRANCH   3   1
BRANCH  11  12
ATOM     12  O   UNL     1      -1.248  -7.506   0.000  0.00  0.00    -0.385 OA
ATOM     13  H   UNL     1      -0.311  -7.255   0.000  0.00  0.00    +0.210 HD
ENDBRANCH  11  12
BRANCH  27  28
ATOM     28  O   UNL     1      -7.384  -5.995   0.000  0.00  0.00    -0.491 OA
ATOM     29  C   UNL     1      -6.634  -4.696   0.000  0.00  0.00    +0.277 C 
ENDBRANCH  27  28
BRANCH  31  32
ATOM     32  O   UNL     1      -7.384 -11.191   0.000  0.00  0.00    -0.491 OA
ATOM     33  C   UNL     1      -8.884 -11.191   0.000  0.00  0.00    +0.277 C 
ENDBRANCH  31  32
BRANCH  30  34
ATOM     34  O   UNL     1      -8.884  -8.593   0.000  0.00  0.00    -0.488 OA
ATOM     35  C   UNL     1      -9.634  -7.294   0.000  0.00  0.00    +0.277 C 
ENDBRANCH  30  34
BRANCH  15  16
ATOM     16  O   UNL     1      -2.739  -6.718   0.000  0.00  0.00    -0.450 OA
BRANCH  16  17
ATOM     17  C   UNL     1      -1.353  -6.144   0.000  0.00  0.00    +0.340 C 
ATOM     24  O   UNL     1      -0.163  -7.057   0.000  0.00  0.00    -0.245 OA
BRANCH  17  18
ATOM     18  C   UNL     1      -1.158  -4.657   0.000  0.00  0.00    +0.059 A 
ATOM     19  C   UNL     1      -2.348  -3.744   0.000  0.00  0.00    +0.015 A 
ATOM     20  C   UNL     1      -2.152  -2.256   0.000  0.00  0.00    +0.001 A 
ATOM     21  C   UNL     1      -0.766  -1.682   0.000  0.00  0.00    +0.000 A 
ATOM     22  C   UNL     1       0.424  -2.595   0.000  0.00  0.00    +0.001 A 
ATOM     23  C   UNL     1       0.228  -4.083   0.000  0.00  0.00    +0.015 A 
ENDBRANCH  17  18
ENDBRANCH  16  17
ENDBRANCH  15  16
TORSDOF 8