REMARK  Name = 351306
REMARK  7 active torsions:
REMARK  status: ('A' for Active; 'I' for Inactive)
REMARK    1  A    between atoms: C_1  and  C_19
REMARK    2  A    between atoms: C_2  and  N_27
REMARK    3  A    between atoms: C_20  and  C_23
REMARK    4  A    between atoms: C_21  and  C_24
REMARK    5  A    between atoms: C_22  and  S_31
REMARK    6  A    between atoms: N_26  and  O_30
REMARK    7  A    between atoms: O_30  and  S_31
REMARK                            x       y       z     vdW  Elec       q    Type
REMARK                         _______ _______ _______ _____ _____    ______ ____
ROOT
ATOM      8  N   UNL     1      -5.946   7.500   0.000  0.00  0.00    -0.061 NA
ATOM      9  C   UNL     1      -5.946   6.000   0.000  0.00  0.00    +0.064 C 
ATOM     10  C   UNL     1      -7.245   5.250   0.000  0.00  0.00    +0.078 C 
ATOM     11  C   UNL     1      -7.245   3.750   0.000  0.00  0.00    +0.093 C 
ATOM     12  N   UNL     1      -5.946   3.000   0.000  0.00  0.00    -0.291 NA
ATOM     13  C   UNL     1      -4.647   3.750   0.000  0.00  0.00    +0.093 C 
ATOM     20  C   UNL     1      -5.946   1.500   0.000  0.00  0.00    +0.106 C 
ATOM     27  C   UNL     1      -4.647   5.250   0.000  0.00  0.00    +0.078 C 
ENDROOT
BRANCH  13  14
ATOM     14  C   UNL     1      -3.348   3.000   0.000  0.00  0.00    -0.030 A 
ATOM     15  C   UNL     1      -3.348   1.500   0.000  0.00  0.00    +0.005 A 
ATOM     16  C   UNL     1      -2.049   0.750   0.000  0.00  0.00    +0.000 A 
ATOM     17  C   UNL     1      -0.750   1.500   0.000  0.00  0.00    +0.000 A 
ATOM     18  C   UNL     1      -0.750   3.000   0.000  0.00  0.00    +0.000 A 
ATOM     19  C   UNL     1      -2.049   3.750   0.000  0.00  0.00    +0.005 A 
ENDBRANCH  13  14
BRANCH  11  21
ATOM     21  C   UNL     1      -8.544   3.000   0.000  0.00  0.00    -0.030 A 
ATOM     22  C   UNL     1      -9.843   3.750   0.000  0.00  0.00    +0.005 A 
ATOM     23  C   UNL     1     -11.142   3.000   0.000  0.00  0.00    +0.000 A 
ATOM     24  C   UNL     1     -11.142   1.500   0.000  0.00  0.00    +0.000 A 
ATOM     25  C   UNL     1      -9.843   0.750   0.000  0.00  0.00    +0.000 A 
ATOM     26  C   UNL     1      -8.544   1.500   0.000  0.00  0.00    +0.005 A 
ENDBRANCH  11  21
BRANCH   8   7
ATOM      7  O   UNL     1      -7.245   8.250   0.000  0.00  0.00    -0.226 OA
BRANCH   7   6
ATOM      6  S   UNL     1      -7.245   9.750   0.000  0.00  0.00    +0.170 S 
ATOM     28  O   UNL     1      -5.745   9.750   0.000  0.00  0.00    -0.130 OA
ATOM     29  O   UNL     1      -8.745   9.750   0.000  0.00  0.00    -0.130 OA
BRANCH   6   5
ATOM      1  C   UNL     1      -7.245  15.750   0.000  0.00  0.00    +0.044 C 
ATOM      2  C   UNL     1      -7.245  14.250   0.000  0.00  0.00    -0.050 A 
ATOM      3  C   UNL     1      -5.946  13.500   0.000  0.00  0.00    +0.005 A 
ATOM      4  C   UNL     1      -5.946  12.000   0.000  0.00  0.00    +0.031 A 
ATOM      5  C   UNL     1      -7.245  11.250   0.000  0.00  0.00    +0.130 A 
ATOM     30  C   UNL     1      -8.544  12.000   0.000  0.00  0.00    +0.031 A 
ATOM     31  C   UNL     1      -8.544  13.500   0.000  0.00  0.00    +0.005 A 
ENDBRANCH   6   5
ENDBRANCH   7   6
ENDBRANCH   8   7
TORSDOF 5