REMARK  Name = 353527
REMARK  17 active torsions:
REMARK  status: ('A' for Active; 'I' for Inactive)
REMARK    1  A    between atoms: N_1  and  C_2
REMARK    2  A    between atoms: N_1  and  C_3
REMARK    3  A    between atoms: N_1  and  C_4
REMARK    4  A    between atoms: C_2  and  C_5
REMARK    5  A    between atoms: C_3  and  C_6
REMARK    6  A    between atoms: C_4  and  C_7
REMARK    7  A    between atoms: SN_8  and  O_9
REMARK    8  A    between atoms: SN_8  and  CL_10
REMARK    9  A    between atoms: SN_8  and  C_11
REMARK   10  A    between atoms: SN_8  and  C_12
REMARK   11  A    between atoms: SN_8  and  C_13
REMARK   12  A    between atoms: C_14  and  N_22
REMARK   13  A    between atoms: N_21  and  C_29
REMARK   14  A    between atoms: N_22  and  C_30
REMARK   15  A    between atoms: C_39  and  O_40
REMARK   16  A    between atoms: O_40  and  C_41
REMARK   17  A    between atoms: C_41  and  C_42
REMARK                            x       y       z     vdW  Elec       q    Type
REMARK                         _______ _______ _______ _____ _____    ______ ____
ROOT
ATOM      1 SN   UNL     1      13.505   2.608   0.000  0.00  0.00    +0.000 Sn
ENDROOT
BRANCH   1   2
ATOM      2  C   UNL     1      14.996   2.451   0.000  0.00  0.00    -1.000 C 
ATOM      3  C   UNL     1      15.878   3.665   0.000  0.00  0.00    +0.000 C 
ATOM      4  C   UNL     1      17.370   3.508   0.000  0.00  0.00    +0.000 C 
ATOM      5  C   UNL     1      17.980   2.137   0.000  0.00  0.00    +0.000 C 
ATOM      6  C   UNL     1      17.098   0.924   0.000  0.00  0.00    +0.000 C 
ATOM      7  C   UNL     1      15.607   1.081   0.000  0.00  0.00    +0.000 C 
ENDBRANCH   1   2
BRANCH   1   8
ATOM      8  C   UNL     1      15.006   5.979   0.000  0.00  0.00    -1.000 C 
ATOM      9  C   UNL     1      14.124   7.193   0.000  0.00  0.00    +0.000 C 
ATOM     10  C   UNL     1      14.734   8.563   0.000  0.00  0.00    +0.000 C 
ATOM     11  C   UNL     1      16.226   8.720   0.000  0.00  0.00    +0.000 C 
ATOM     12  C   UNL     1      17.108   7.506   0.000  0.00  0.00    +0.000 C 
ATOM     13  C   UNL     1      16.497   6.136   0.000  0.00  0.00    +0.000 C 
ENDBRANCH   1   8
BRANCH   1  14
ATOM     14  C   UNL     1      11.751   1.595   0.000  0.00  0.00    -1.000 C 
ATOM     15  C   UNL     1      10.452   2.345   0.000  0.00  0.00    +0.000 C 
ATOM     16  C   UNL     1       9.153   1.595   0.000  0.00  0.00    +0.000 C 
ATOM     17  C   UNL     1       9.153   0.095   0.000  0.00  0.00    +0.000 C 
ATOM     18  C   UNL     1      10.452  -0.655   0.000  0.00  0.00    +0.000 C 
ATOM     19  C   UNL     1      11.751   0.095   0.000  0.00  0.00    +0.000 C 
ENDBRANCH   1  14
BRANCH   1  22
ATOM     22  O   UNL     1      10.762   5.077   0.000  0.00  0.00    +0.000 OA
ATOM     23  C   UNL     1      11.074   6.545   0.000  0.00  0.00    +0.000 C 
ATOM     27  N   UNL     1       9.959   7.548   0.000  0.00  0.00    +0.000 N 
ATOM     28  H   UNL     1      10.271   9.015   0.000  0.00  0.00    +0.000 HD
BRANCH  27  29
ATOM     29  C   UNL     1       8.533   7.085   0.000  0.00  0.00    +0.000 A 
ATOM     30  C   UNL     1       8.221   5.617   0.000  0.00  0.00    +0.000 A 
ATOM     31  C   UNL     1       6.794   5.154   0.000  0.00  0.00    +0.000 A 
ATOM     32  C   UNL     1       5.679   6.158   0.000  0.00  0.00    +0.000 A 
ATOM     36  C   UNL     1       5.991   7.625   0.000  0.00  0.00    +0.000 A 
ATOM     37  C   UNL     1       7.418   8.088   0.000  0.00  0.00    +0.000 A 
BRANCH  32  33
ATOM     33  O   UNL     1       4.253   5.694   0.000  0.00  0.00    +0.000 OA
BRANCH  33  34
ATOM     34  C   UNL     1       3.138   6.698   0.000  0.00  0.00    +0.000 C 
ATOM     35  C   UNL     1       1.712   6.234   0.000  0.00  0.00    +0.000 C 
ENDBRANCH  33  34
ENDBRANCH  32  33
ENDBRANCH  27  29
BRANCH  23  24
ATOM     24  N   UNL     1      12.500   7.008   0.000  0.00  0.00    -1.000 NA
BRANCH  24  25
ATOM     25  C   UNL     1      12.812   8.475   0.000  0.00  0.00    +0.000 C 
ATOM     26  N   UNL     1      13.124   9.943   0.000  0.00  0.00    +0.000 NA
ENDBRANCH  24  25
ENDBRANCH  23  24
ENDBRANCH   1  22
BRANCH   1  20
ATOM     20 CL   UNL     1      13.926   0.627   0.000  0.00  0.00    +0.000 Cl
ATOM     21  H   UNL     1      12.811  -0.377   0.000  0.00  0.00    +0.000 HD
ENDBRANCH   1  20
TORSDOF 10