REMARK  Name = 332598
REMARK  15 active torsions:
REMARK  status: ('A' for Active; 'I' for Inactive)
REMARK    1  A    between atoms: C_1  and  C_6
REMARK    2  A    between atoms: C_3  and  C_7
REMARK    3  A    between atoms: C_8  and  C_9
REMARK    4  A    between atoms: C_8  and  C_10
REMARK    5  A    between atoms: C_12  and  C_14
REMARK    6  A    between atoms: C_16  and  C_17
REMARK    7  A    between atoms: C_16  and  C_18
REMARK    8  A    between atoms: C_18  and  O_19
REMARK    9  A    between atoms: C_18  and  C_21
REMARK   10  A    between atoms: O_19  and  C_20
REMARK   11  A    between atoms: C_21  and  C_22
REMARK   12  A    between atoms: C_21  and  C_23
REMARK   13  A    between atoms: C_25  and  O_26
REMARK   14  A    between atoms: C_27  and  C_30
REMARK   15  A    between atoms: C_33  and  C_34
REMARK                            x       y       z     vdW  Elec       q    Type
REMARK                         _______ _______ _______ _____ _____    ______ ____
ROOT
ATOM     14  C   UNL     1      13.524  -6.399   0.000  0.00  0.00    +0.185 C 
ATOM     15  O   UNL     1      14.274  -7.698   0.000  0.00  0.00    -0.459 OA
ATOM     16  C   UNL     1      15.774  -7.698   0.000  0.00  0.00    +0.339 C 
ATOM     17  O   UNL     1      16.524  -6.399   0.000  0.00  0.00    -0.248 OA
ATOM     18  C   UNL     1      16.524  -8.997   0.000  0.00  0.00    +0.255 C 
ATOM     19  O   UNL     1      17.274 -10.296   0.000  0.00  0.00    -0.356 OA
ATOM     20  C   UNL     1      15.774 -10.296   0.000  0.00  0.00    +0.159 C 
ATOM     21  C   UNL     1      16.524 -11.595   0.000  0.00  0.00    +0.039 C 
ATOM     22  C   UNL     1      15.774 -12.894   0.000  0.00  0.00    +0.006 C 
ATOM     23  C   UNL     1      16.524 -14.193   0.000  0.00  0.00    +0.124 C 
ATOM     24  C   UNL     1      15.774 -15.492   0.000  0.00  0.00    +0.308 C 
ATOM     25  O   UNL     1      16.524 -16.791   0.000  0.00  0.00    -0.251 OA
ATOM     26  O   UNL     1      14.274 -15.492   0.000  0.00  0.00    -0.461 OA
ATOM     27  C   UNL     1      13.524 -14.193   0.000  0.00  0.00    +0.183 C 
ATOM     28  C   UNL     1      12.024 -14.193   0.000  0.00  0.00    +0.049 C 
ATOM     29  C   UNL     1      11.274 -15.492   0.000  0.00  0.00    +0.015 C 
ATOM     30  C   UNL     1      11.274 -12.894   0.000  0.00  0.00    -0.022 C 
ATOM     31  C   UNL     1      12.024 -11.595   0.000  0.00  0.00    +0.003 C 
ATOM     32  C   UNL     1      11.274 -10.296   0.000  0.00  0.00    +0.176 C 
ATOM     33  O   UNL     1      10.524  -8.997   0.000  0.00  0.00    -0.358 OA
ATOM     34  C   UNL     1      12.024  -8.997   0.000  0.00  0.00    +0.123 C 
ATOM     35  C   UNL     1      13.524  -8.997   0.000  0.00  0.00    +0.047 C 
ATOM     36  C   UNL     1      11.274  -7.698   0.000  0.00  0.00    +0.152 C 
ATOM     39  C   UNL     1      14.274 -12.894   0.000  0.00  0.00    +0.049 C 
ATOM     40  C   UNL     1      12.024  -6.399   0.000  0.00  0.00    +0.079 C 
ENDROOT
BRANCH  14  13
ATOM     13  C   UNL     1      14.274  -5.100   0.000  0.00  0.00    +0.060 C 
ATOM     41  C   UNL     1      15.573  -4.350   0.000  0.00  0.00    +0.014 C 
BRANCH  13  12
ATOM     12  C   UNL     1      13.524  -3.801   0.000  0.00  0.00    +0.150 C 
BRANCH  12  11
ATOM     10  C   UNL     1      11.274  -2.502   0.000  0.00  0.00    +0.001 C 
ATOM     11  C   UNL     1      12.024  -3.801   0.000  0.00  0.00    -0.044 C 
ATOM     44  C   UNL     1      11.274  -5.100   0.000  0.00  0.00    +0.042 C 
BRANCH  10   9
ATOM      8  C   UNL     1       9.024  -1.203   0.000  0.00  0.00    +0.003 C 
ATOM      9  C   UNL     1       9.774  -2.502   0.000  0.00  0.00    +0.000 C 
BRANCH   8   7
ATOM      6  C   UNL     1       6.774   0.096   0.000  0.00  0.00    +0.034 C 
ATOM      7  C   UNL     1       7.524  -1.203   0.000  0.00  0.00    -0.048 C 
ATOM     45  C   UNL     1       6.774  -2.502   0.000  0.00  0.00    +0.044 C 
BRANCH   6   5
ATOM      1  C   UNL     1       2.966  -0.654   0.000  0.00  0.00    +0.193 A 
ATOM      2  C   UNL     1       1.752  -1.535   0.000  0.00  0.00    +0.109 C 
ATOM      3  O   UNL     1       2.966   0.846   0.000  0.00  0.00    -0.448 OA
ATOM      4  C   UNL     1       4.393   1.310   0.000  0.00  0.00    +0.225 A 
ATOM      5  C   UNL     1       5.274   0.096   0.000  0.00  0.00    +0.102 A 
ATOM     46  N   UNL     1       4.393  -1.117   0.000  0.00  0.00    -0.214 NA
ENDBRANCH   6   5
ENDBRANCH   8   7
ENDBRANCH  10   9
ENDBRANCH  12  11
BRANCH  12  42
ATOM     42  O   UNL     1      14.274  -2.502   0.000  0.00  0.00    -0.375 OA
ATOM     43  C   UNL     1      15.774  -2.502   0.000  0.00  0.00    +0.194 C 
ENDBRANCH  12  42
ENDBRANCH  13  12
ENDBRANCH  14  13
BRANCH  36  37
ATOM     37  O   UNL     1      10.125  -8.662   0.000  0.00  0.00    -0.389 OA
ATOM     38  H   UNL     1       9.214  -8.330   0.000  0.00  0.00    +0.210 HD
ENDBRANCH  36  37
TORSDOF 8