REMARK  Name = 337612
REMARK  2 active torsions:
REMARK  status: ('A' for Active; 'I' for Inactive)
REMARK    1  A    between atoms: N_12  and  C_20
REMARK    2  A    between atoms: C_20  and  C_21
REMARK                            x       y       z     vdW  Elec       q    Type
REMARK                         _______ _______ _______ _____ _____    ______ ____
ROOT
ATOM      1  C   UNL     1       1.385   1.360   0.000  0.00  0.00    +0.001 A 
ATOM      2  C   UNL     1       2.755   0.750   0.000  0.00  0.00    +0.001 A 
ATOM      3  C   UNL     1       3.969   1.632   0.000  0.00  0.00    +0.011 A 
ATOM      4  C   UNL     1       3.812   3.123   0.000  0.00  0.00    +0.010 A 
ATOM      5  C   UNL     1       4.816   4.238   0.000  0.00  0.00    +0.064 A 
ATOM      6  N   UNL     1       6.316   4.238   0.000  0.00  0.00    -0.303 N 
ATOM     14  C   UNL     1       7.066   5.537   0.000  0.00  0.00    +0.260 A 
ATOM     15  O   UNL     1       8.566   5.537   0.000  0.00  0.00    -0.267 OA
ATOM     16  C   UNL     1       6.316   6.836   0.000  0.00  0.00    +0.047 A 
ATOM     17  C   UNL     1       7.066   8.135   0.000  0.00  0.00    +0.014 A 
ATOM     18  C   UNL     1       6.316   9.434   0.000  0.00  0.00    +0.001 A 
ATOM     19  C   UNL     1       4.816   9.434   0.000  0.00  0.00    +0.001 A 
ATOM     20  C   UNL     1       4.066   8.135   0.000  0.00  0.00    +0.009 A 
ATOM     21  C   UNL     1       4.816   6.836   0.000  0.00  0.00    +0.000 A 
ATOM     22  C   UNL     1       4.066   5.537   0.000  0.00  0.00    +0.054 A 
ATOM     23  C   UNL     1       2.598   5.225   0.000  0.00  0.00    +0.196 C 
ATOM     24  O   UNL     1       1.484   6.229   0.000  0.00  0.00    -0.287 OA
ATOM     25  C   UNL     1       2.442   3.734   0.000  0.00  0.00    +0.031 A 
ATOM     26  C   UNL     1       1.228   2.852   0.000  0.00  0.00    +0.012 A 
ENDROOT
BRANCH   6   7
ATOM      7  C   UNL     1       7.066   2.939   0.000  0.00  0.00    +0.160 C 
BRANCH   7   8
ATOM      8  C   UNL     1       8.566   2.939   0.000  0.00  0.00    -0.028 A 
ATOM      9  C   UNL     1       9.316   1.640   0.000  0.00  0.00    +0.005 A 
ATOM     10  C   UNL     1      10.816   1.640   0.000  0.00  0.00    +0.000 A 
ATOM     11  C   UNL     1      11.566   2.939   0.000  0.00  0.00    +0.000 A 
ATOM     12  C   UNL     1      10.816   4.238   0.000  0.00  0.00    +0.000 A 
ATOM     13  C   UNL     1       9.316   4.238   0.000  0.00  0.00    +0.005 A 
ENDBRANCH   7   8
ENDBRANCH   6   7
TORSDOF 2