REMARK  Name = 33004
REMARK  2 active torsions:
REMARK  status: ('A' for Active; 'I' for Inactive)
REMARK    1  A    between atoms: C_4  and  O_16
REMARK    2  A    between atoms: C_5  and  C_6
REMARK                            x       y       z     vdW  Elec       q    Type
REMARK                         _______ _______ _______ _____ _____    ______ ____
ROOT
ATOM      8  C   UNL     1      -6.750  -2.250   0.000  0.00  0.00    +0.109 A 
ATOM      9  S   UNL     1      -7.632  -3.463   0.000  0.00  0.00    -0.067 S 
ATOM     10  C   UNL     1      -9.058  -3.000   0.000  0.00  0.00    +0.040 A 
ATOM     11  C   UNL     1     -10.357  -3.750   0.000  0.00  0.00    +0.017 A 
ATOM     12  C   UNL     1     -11.656  -3.000   0.000  0.00  0.00    +0.001 A 
ATOM     13  C   UNL     1     -11.656  -1.500   0.000  0.00  0.00    +0.002 A 
ATOM     14  C   UNL     1     -10.357  -0.750   0.000  0.00  0.00    +0.029 A 
ATOM     15  C   UNL     1      -9.058  -1.500   0.000  0.00  0.00    +0.079 A 
ATOM     16  N   UNL     1      -7.632  -1.037   0.000  0.00  0.00    -0.239 NA
ENDROOT
BRANCH   8   7
ATOM      1  C   UNL     1      -3.000  -0.951   0.000  0.00  0.00    +0.046 A 
ATOM      2  C   UNL     1      -2.250  -2.250   0.000  0.00  0.00    +0.117 A 
ATOM      5  C   UNL     1      -3.000  -3.549   0.000  0.00  0.00    +0.046 A 
ATOM      6  C   UNL     1      -4.500  -3.549   0.000  0.00  0.00    +0.014 A 
ATOM      7  C   UNL     1      -5.250  -2.250   0.000  0.00  0.00    +0.007 A 
ATOM     17  C   UNL     1      -4.500  -0.951   0.000  0.00  0.00    +0.014 A 
BRANCH   2   3
ATOM      3  O   UNL     1      -0.750  -2.250   0.000  0.00  0.00    -0.507 OA
ATOM      4  H   UNL     1      -0.281  -3.061   0.000  0.00  0.00    +0.292 HD
ENDBRANCH   2   3
ENDBRANCH   8   7
TORSDOF 2