REMARK  Name = 81856
REMARK  2 active torsions:
REMARK  status: ('A' for Active; 'I' for Inactive)
REMARK    1  A    between atoms: C_5  and  N_15
REMARK    2  A    between atoms: C_11  and  N_19
REMARK                            x       y       z     vdW  Elec       q    Type
REMARK                         _______ _______ _______ _____ _____    ______ ____
ROOT
ATOM      7  N   UNL     1       5.946  -9.750   0.000  0.00  0.00    -0.269 N 
ATOM      8  H   UNL     1       6.799 -10.242   0.000  0.00  0.00    +0.156 HD
ATOM      9  C   UNL     1       5.946  -8.250   0.000  0.00  0.00    +0.309 C 
ATOM     10  N   UNL     1       4.647  -7.500   0.000  0.00  0.00    -0.254 N 
ATOM     11  H   UNL     1       3.795  -7.992   0.000  0.00  0.00    +0.158 HD
ATOM     12  C   UNL     1       4.647  -6.000   0.000  0.00  0.00    +0.126 A 
ATOM     13  C   UNL     1       5.946  -5.250   0.000  0.00  0.00    +0.050 A 
ATOM     14  C   UNL     1       5.946  -3.750   0.000  0.00  0.00    +0.089 A 
ATOM     15  C   UNL     1       4.647  -3.000   0.000  0.00  0.00    +0.291 A 
ATOM     19  C   UNL     1       3.348  -3.750   0.000  0.00  0.00    +0.197 A 
ATOM     20  N   UNL     1       3.348  -5.250   0.000  0.00  0.00    -0.233 NA
ATOM     21  O   UNL     1       7.245  -7.500   0.000  0.00  0.00    -0.252 OA
ENDROOT
BRANCH   7   6
ATOM      1 CL   UNL     1       0.750  -9.750   0.000  0.00  0.00    -0.082 Cl
ATOM      2  C   UNL     1       2.049 -10.500   0.000  0.00  0.00    +0.061 A 
ATOM      3  C   UNL     1       2.049 -12.000   0.000  0.00  0.00    +0.059 A 
ATOM      4  C   UNL     1       3.348 -12.750   0.000  0.00  0.00    +0.023 A 
ATOM      5  C   UNL     1       4.647 -12.000   0.000  0.00  0.00    +0.025 A 
ATOM      6  C   UNL     1       4.647 -10.500   0.000  0.00  0.00    +0.036 A 
ATOM     22 CL   UNL     1       0.750 -12.750   0.000  0.00  0.00    -0.082 Cl
ATOM     23  C   UNL     1       3.348  -9.750   0.000  0.00  0.00    +0.044 A 
ENDBRANCH   7   6
BRANCH  15  16
ATOM     16  N   UNL     1       4.647  -1.500   0.000  0.00  0.00    +0.081 N 
ATOM     17  O   UNL     1       5.946  -0.750   0.000  0.00  0.00    +0.041 OA
ATOM     18  O   UNL     1       3.348  -0.750   0.000  0.00  0.00    -0.576 OA
ENDBRANCH  15  16
TORSDOF 2