REMARK  Name = 81750
REMARK  7 active torsions:
REMARK  status: ('A' for Active; 'I' for Inactive)
REMARK    1  A    between atoms: N_2  and  C_19
REMARK    2  A    between atoms: N_4  and  C_20
REMARK    3  A    between atoms: C_13  and  N_22
REMARK    4  A    between atoms: C_14  and  C_23
REMARK    5  A    between atoms: C_17  and  C_21
REMARK    6  A    between atoms: C_21  and  N_22
REMARK    7  A    between atoms: C_23  and  O_25
REMARK                            x       y       z     vdW  Elec       q    Type
REMARK                         _______ _______ _______ _____ _____    ______ ____
ROOT
ATOM      1  O   UNL     1       0.750   2.250   0.000  0.00  0.00    -0.246 OA
ATOM      2  C   UNL     1       2.049   3.000   0.000  0.00  0.00    +0.333 A 
ATOM      3  N   UNL     1       3.348   2.250   0.000  0.00  0.00    -0.280 N 
ATOM      4  C   UNL     1       3.348   0.750   0.000  0.00  0.00    +0.155 C 
ATOM      5  C   UNL     1       4.647   3.000   0.000  0.00  0.00    +0.168 A 
ATOM      6  C   UNL     1       4.647   4.500   0.000  0.00  0.00    +0.149 A 
ATOM      7  C   UNL     1       3.348   5.250   0.000  0.00  0.00    +0.282 A 
ATOM      8  O   UNL     1       3.348   6.750   0.000  0.00  0.00    -0.265 OA
ATOM      9  N   UNL     1       6.074   4.963   0.000  0.00  0.00    -0.335 N 
ATOM     10  H   UNL     1       6.537   6.390   0.000  0.00  0.00    +0.167 HD
ATOM     11  C   UNL     1       6.955   3.750   0.000  0.00  0.00    +0.127 A 
ATOM     25  N   UNL     1       6.074   2.537   0.000  0.00  0.00    -0.213 NA
ATOM     26  N   UNL     1       2.049   4.500   0.000  0.00  0.00    -0.262 N 
ATOM     27  C   UNL     1       0.750   5.250   0.000  0.00  0.00    +0.157 C 
ENDROOT
BRANCH  11  12
ATOM     12  C   UNL     1       8.455   3.750   0.000  0.00  0.00    +0.176 C 
BRANCH  12  13
ATOM     13  N   UNL     1       9.205   5.049   0.000  0.00  0.00    -0.337 N 
ATOM     14  H   UNL     1       8.713   5.902   0.000  0.00  0.00    +0.147 HD
BRANCH  13  15
ATOM     15  C   UNL     1      10.705   5.049   0.000  0.00  0.00    +0.027 A 
ATOM     16  C   UNL     1      11.455   3.750   0.000  0.00  0.00    +0.024 A 
ATOM     17  C   UNL     1      12.955   3.750   0.000  0.00  0.00    +0.017 A 
ATOM     18  C   UNL     1      13.705   5.049   0.000  0.00  0.00    +0.059 A 
ATOM     23  C   UNL     1      12.955   6.348   0.000  0.00  0.00    +0.017 A 
ATOM     24  C   UNL     1      11.455   6.348   0.000  0.00  0.00    +0.024 A 
BRANCH  18  19
ATOM     19  C   UNL     1      15.205   5.049   0.000  0.00  0.00    +0.337 C 
ATOM     22  O   UNL     1      15.955   6.348   0.000  0.00  0.00    -0.245 OA
BRANCH  19  20
ATOM     20  O   UNL     1      15.955   3.750   0.000  0.00  0.00    -0.477 OA
ATOM     21  H   UNL     1      15.487   2.939   0.000  0.00  0.00    +0.295 HD
ENDBRANCH  19  20
ENDBRANCH  18  19
ENDBRANCH  13  15
ENDBRANCH  12  13
ENDBRANCH  11  12
TORSDOF 5