REMARK  Name = 81463
REMARK  7 active torsions:
REMARK  status: ('A' for Active; 'I' for Inactive)
REMARK    1  A    between atoms: C_15  and  O_26
REMARK    2  A    between atoms: C_23  and  O_33
REMARK    3  A    between atoms: C_24  and  C_28
REMARK    4  A    between atoms: C_25  and  O_31
REMARK    5  A    between atoms: O_26  and  C_27
REMARK    6  A    between atoms: C_28  and  O_30
REMARK    7  A    between atoms: O_31  and  C_32
REMARK                            x       y       z     vdW  Elec       q    Type
REMARK                         _______ _______ _______ _____ _____    ______ ____
ROOT
ATOM      1  N   UNL     1      -8.946   5.061   0.000  0.00  0.00    -0.356 N 
ATOM      2  H   UNL     1      -9.410   3.634   0.000  0.00  0.00    +0.166 HD
ATOM      3  C   UNL     1      -9.828   6.274   0.000  0.00  0.00    +0.050 A 
ATOM      4  C   UNL     1     -11.320   6.431   0.000  0.00  0.00    +0.071 A 
ATOM      5  C   UNL     1     -11.930   7.802   0.000  0.00  0.00    +0.122 A 
ATOM      8  C   UNL     1     -11.048   9.015   0.000  0.00  0.00    +0.046 A 
ATOM      9  C   UNL     1      -9.556   8.858   0.000  0.00  0.00    +0.014 A 
ATOM     10  C   UNL     1      -8.946   7.488   0.000  0.00  0.00    +0.003 A 
ATOM     11  C   UNL     1      -7.520   7.024   0.000  0.00  0.00    -0.016 A 
ATOM     12  C   UNL     1      -6.221   7.774   0.000  0.00  0.00    +0.053 C 
ATOM     13  C   UNL     1      -4.922   7.024   0.000  0.00  0.00    +0.090 C 
ATOM     14  N   UNL     1      -4.922   5.524   0.000  0.00  0.00    -0.293 NA
ATOM     15  C   UNL     1      -3.623   4.774   0.000  0.00  0.00    +0.089 C 
ATOM     16  C   UNL     1      -3.623   3.275   0.000  0.00  0.00    +0.010 C 
ATOM     17  C   UNL     1      -2.324   2.525   0.000  0.00  0.00    +0.039 C 
ATOM     18  C   UNL     1      -2.324   1.025   0.000  0.00  0.00    +0.144 C 
ATOM     21  C   UNL     1      -3.623   0.275   0.000  0.00  0.00    +0.160 C 
ATOM     24  C   UNL     1      -4.922   1.025   0.000  0.00  0.00    +0.132 C 
ATOM     29  C   UNL     1      -4.922   2.525   0.000  0.00  0.00    +0.012 C 
ATOM     30  C   UNL     1      -6.221   3.275   0.000  0.00  0.00    +0.030 C 
ATOM     31  C   UNL     1      -6.221   4.774   0.000  0.00  0.00    +0.104 C 
ATOM     32  C   UNL     1      -7.520   5.524   0.000  0.00  0.00    +0.038 A 
ENDROOT
BRANCH   5   6
ATOM      6  O   UNL     1     -13.422   7.958   0.000  0.00  0.00    -0.495 OA
ATOM      7  C   UNL     1     -14.032   9.329   0.000  0.00  0.00    +0.277 C 
ENDBRANCH   5   6
BRANCH  18  19
ATOM     19  O   UNL     1      -1.025   0.275   0.000  0.00  0.00    -0.389 OA
ATOM     20  H   UNL     1      -1.024  -0.695   0.000  0.00  0.00    +0.210 HD
ENDBRANCH  18  19
BRANCH  21  22
ATOM     22  O   UNL     1      -3.623  -1.226   0.000  0.00  0.00    -0.376 OA
ATOM     23  C   UNL     1      -4.922  -1.976   0.000  0.00  0.00    +0.194 C 
ENDBRANCH  21  22
BRANCH  24  25
ATOM     25  C   UNL     1      -6.221   0.275   0.000  0.00  0.00    +0.311 C 
ATOM     28  O   UNL     1      -7.520   1.025   0.000  0.00  0.00    -0.251 OA
BRANCH  25  26
ATOM     26  O   UNL     1      -6.221  -1.226   0.000  0.00  0.00    -0.480 OA
ATOM     27  H   UNL     1      -7.032  -1.694   0.000  0.00  0.00    +0.295 HD
ENDBRANCH  25  26
ENDBRANCH  24  25
TORSDOF 5