REMARK  Name = 83715
REMARK  1 active torsions:
REMARK  status: ('A' for Active; 'I' for Inactive)
REMARK    1  A    between atoms: C_9  and  C_11
REMARK                            x       y       z     vdW  Elec       q    Type
REMARK                         _______ _______ _______ _____ _____    ______ ____
ROOT
ATOM      1  H   UNL     1       0.750  -5.250   0.000  0.00  0.00    +0.148 HD
ATOM      2  N   UNL     1       2.049  -6.000   0.000  0.00  0.00    -0.322 N 
ATOM      3  C   UNL     1       2.049  -7.500   0.000  0.00  0.00    +0.038 A 
ATOM      4  C   UNL     1       0.750  -8.250   0.000  0.00  0.00    +0.023 A 
ATOM      5  C   UNL     1       0.750  -9.750   0.000  0.00  0.00    +0.002 A 
ATOM      6  C   UNL     1       2.049 -10.500   0.000  0.00  0.00    +0.009 A 
ATOM      7  C   UNL     1       3.348  -9.750   0.000  0.00  0.00    -0.014 A 
ATOM      8  C   UNL     1       4.647 -10.500   0.000  0.00  0.00    +0.009 A 
ATOM      9  C   UNL     1       5.946  -9.750   0.000  0.00  0.00    +0.002 A 
ATOM     10  C   UNL     1       5.946  -8.250   0.000  0.00  0.00    +0.023 A 
ATOM     11  C   UNL     1       4.647  -7.500   0.000  0.00  0.00    +0.038 A 
ATOM     12  N   UNL     1       4.647  -6.000   0.000  0.00  0.00    -0.322 N 
ATOM     13  H   UNL     1       5.946  -5.250   0.000  0.00  0.00    +0.148 HD
ATOM     14  C   UNL     1       3.348  -8.250   0.000  0.00  0.00    +0.024 A 
ATOM     15  C   UNL     1       3.348  -5.250   0.000  0.00  0.00    +0.189 C 
ENDROOT
BRANCH  15  16
ATOM     16  C   UNL     1       3.348  -3.750   0.000  0.00  0.00    +0.009 A 
ATOM     17  C   UNL     1       4.647  -3.000   0.000  0.00  0.00    +0.117 A 
ATOM     18  N   UNL     1       4.647  -1.500   0.000  0.00  0.00    -0.263 NA
ATOM     19  C   UNL     1       3.348  -0.750   0.000  0.00  0.00    +0.111 A 
ATOM     20  C   UNL     1       2.049  -1.500   0.000  0.00  0.00    +0.020 A 
ATOM     21  C   UNL     1       2.049  -3.000   0.000  0.00  0.00    +0.010 A 
ENDBRANCH  15  16
TORSDOF 1