REMARK  Name = 80997
REMARK  9 active torsions:
REMARK  status: ('A' for Active; 'I' for Inactive)
REMARK    1  A    between atoms: N_2  and  C_24
REMARK    2  A    between atoms: C_6  and  C_34
REMARK    3  A    between atoms: C_6  and  O_37
REMARK    4  A    between atoms: C_7  and  C_33
REMARK    5  A    between atoms: C_8  and  C_38
REMARK    6  A    between atoms: C_10  and  O_30
REMARK    7  A    between atoms: C_15  and  C_31
REMARK    8  A    between atoms: C_22  and  C_32
REMARK    9  A    between atoms: C_34  and  C_36
REMARK                            x       y       z     vdW  Elec       q    Type
REMARK                         _______ _______ _______ _____ _____    ______ ____
ROOT
ATOM      1  N   UNL     1     -12.959  -0.191   0.000  0.00  0.00    -0.174 NA
ATOM      2  N   UNL     1     -12.959  -1.691   0.000  0.00  0.00    -0.232 N 
ATOM      9  C   UNL     1     -11.533  -2.154   0.000  0.00  0.00    +0.071 A 
ATOM     10  C   UNL     1     -10.923  -3.525   0.000  0.00  0.00    +0.032 C 
ATOM     11  C   UNL     1      -9.431  -3.682   0.000  0.00  0.00    -0.036 C 
ATOM     12  C   UNL     1      -8.821  -5.052   0.000  0.00  0.00    -0.050 C 
ATOM     13  C   UNL     1      -9.702  -6.265   0.000  0.00  0.00    +0.044 C 
ATOM     14  C   UNL     1      -7.329  -5.209   0.000  0.00  0.00    -0.019 C 
ATOM     15  C   UNL     1      -6.447  -3.995   0.000  0.00  0.00    +0.022 C 
ATOM     16  C   UNL     1      -7.057  -2.625   0.000  0.00  0.00    +0.035 C 
ATOM     17  C   UNL     1      -6.176  -1.411   0.000  0.00  0.00    +0.120 C 
ATOM     20  C   UNL     1      -4.684  -1.568   0.000  0.00  0.00    +0.041 C 
ATOM     21  C   UNL     1      -4.074  -2.938   0.000  0.00  0.00    +0.010 C 
ATOM     22  C   UNL     1      -3.070  -1.824   0.000  0.00  0.00    +0.015 C 
ATOM     23  C   UNL     1      -2.647  -3.402   0.000  0.00  0.00    +0.131 C 
ATOM     29  C   UNL     1      -2.647  -4.902   0.000  0.00  0.00    +0.026 C 
ATOM     30  C   UNL     1      -1.434  -5.784   0.000  0.00  0.00    +0.011 C 
ATOM     31  C   UNL     1      -4.074  -5.365   0.000  0.00  0.00    +0.011 C 
ATOM     32  C   UNL     1      -4.955  -4.152   0.000  0.00  0.00    +0.006 C 
ATOM     33  C   UNL     1      -8.549  -2.468   0.000  0.00  0.00    +0.003 C 
ATOM     34  C   UNL     1      -7.668  -1.254   0.000  0.00  0.00    +0.017 C 
ATOM     35  C   UNL     1      -9.159  -1.098   0.000  0.00  0.00    +0.050 C 
ATOM     36  C   UNL     1     -10.651  -0.941   0.000  0.00  0.00    -0.001 A 
ATOM     37  C   UNL     1     -11.533   0.273   0.000  0.00  0.00    +0.139 A 
ENDROOT
BRANCH   2   3
ATOM      3  C   UNL     1     -14.173  -2.573   0.000  0.00  0.00    +0.066 A 
ATOM      4  C   UNL     1     -15.543  -1.962   0.000  0.00  0.00    +0.028 A 
ATOM      5  C   UNL     1     -16.757  -2.844   0.000  0.00  0.00    +0.002 A 
ATOM      6  C   UNL     1     -16.600  -4.336   0.000  0.00  0.00    +0.000 A 
ATOM      7  C   UNL     1     -15.230  -4.946   0.000  0.00  0.00    +0.002 A 
ATOM      8  C   UNL     1     -14.016  -4.064   0.000  0.00  0.00    +0.028 A 
ENDBRANCH   2   3
BRANCH  23  26
ATOM     26  C   UNL     1      -1.852  -2.130   0.000  0.00  0.00    +0.162 C 
ATOM     27  C   UNL     1      -0.353  -2.182   0.000  0.00  0.00    +0.089 C 
ATOM     28  O   UNL     1      -2.557  -0.805   0.000  0.00  0.00    -0.295 OA
ENDBRANCH  23  26
BRANCH  17  18
ATOM     18  O   UNL     1      -6.786  -0.041   0.000  0.00  0.00    -0.391 OA
ATOM     19  H   UNL     1      -6.216   0.744   0.000  0.00  0.00    +0.210 HD
ENDBRANCH  17  18
BRANCH  23  24
ATOM     24  O   UNL     1      -1.155  -3.559   0.000  0.00  0.00    -0.380 OA
ATOM     25  H   UNL     1      -0.761  -4.445   0.000  0.00  0.00    +0.211 HD
ENDBRANCH  23  24
TORSDOF 4