REMARK  Name = 8481
REMARK  8 active torsions:
REMARK  status: ('A' for Active; 'I' for Inactive)
REMARK    1  A    between atoms: C_3  and  O_7
REMARK    2  A    between atoms: C_4  and  C_10
REMARK    3  A    between atoms: O_7  and  C_14
REMARK    4  A    between atoms: C_9  and  C_14
REMARK    5  A    between atoms: C_9  and  O_15
REMARK    6  A    between atoms: C_10  and  C_11
REMARK    7  A    between atoms: C_10  and  C_12
REMARK    8  A    between atoms: C_10  and  C_13
REMARK                            x       y       z     vdW  Elec       q    Type
REMARK                         _______ _______ _______ _____ _____    ______ ____
ROOT
ATOM      1  C   UNL     1      -2.625  -4.748   0.000  0.00  0.00    +0.046 A 
ATOM      2  C   UNL     1      -4.125  -4.748   0.000  0.00  0.00    +0.008 A 
ATOM      3  C   UNL     1      -4.875  -6.047   0.000  0.00  0.00    -0.042 A 
ATOM      8  C   UNL     1      -4.125  -7.346   0.000  0.00  0.00    +0.008 A 
ATOM      9  C   UNL     1      -2.625  -7.346   0.000  0.00  0.00    +0.046 A 
ATOM     10  C   UNL     1      -1.875  -6.047   0.000  0.00  0.00    +0.121 A 
ENDROOT
BRANCH   3   4
ATOM      4  C   UNL     1      -6.375  -6.047   0.000  0.00  0.00    -0.013 C 
ATOM      5  C   UNL     1      -6.375  -7.547   0.000  0.00  0.00    +0.015 C 
ATOM      6  C   UNL     1      -7.875  -6.047   0.000  0.00  0.00    +0.015 C 
ATOM      7  C   UNL     1      -6.375  -4.547   0.000  0.00  0.00    +0.015 C 
ENDBRANCH   3   4
BRANCH  10  11
ATOM     11  O   UNL     1      -0.375  -6.047   0.000  0.00  0.00    -0.481 OA
BRANCH  11  12
ATOM     12  C   UNL     1       0.375  -4.748   0.000  0.00  0.00    +0.349 C 
BRANCH  12  13
ATOM     13  C   UNL     1      -0.375  -3.449   0.000  0.00  0.00    +0.343 C 
ATOM     16  O   UNL     1      -1.875  -3.449   0.000  0.00  0.00    -0.247 OA
BRANCH  13  14
ATOM     14  O   UNL     1       0.375  -2.150   0.000  0.00  0.00    -0.478 OA
ATOM     15  H   UNL     1       1.312  -2.149   0.000  0.00  0.00    +0.295 HD
ENDBRANCH  13  14
ENDBRANCH  12  13
ENDBRANCH  11  12
ENDBRANCH  10  11
TORSDOF 5