REMARK  Name = 8090
REMARK  2 active torsions:
REMARK  status: ('A' for Active; 'I' for Inactive)
REMARK    1  A    between atoms: C_6  and  C_17
REMARK    2  A    between atoms: C_7  and  N_19
REMARK                            x       y       z     vdW  Elec       q    Type
REMARK                         _______ _______ _______ _____ _____    ______ ____
ROOT
ATOM      5  C   UNL     1       4.272  -0.101   0.000  0.00  0.00    +0.248 C 
ATOM      6  N   UNL     1       5.571  -0.851   0.000  0.00  0.00    -0.281 N 
ATOM      7  H   UNL     1       5.571  -1.835   0.000  0.00  0.00    +0.155 HD
ATOM     18  O   UNL     1       2.973  -0.851   0.000  0.00  0.00    -0.270 OA
ENDROOT
BRANCH   6   8
ATOM      8  C   UNL     1       6.870  -0.101   0.000  0.00  0.00    +0.041 A 
ATOM      9  C   UNL     1       8.169  -0.851   0.000  0.00  0.00    +0.003 A 
ATOM     10  C   UNL     1       8.169  -2.350   0.000  0.00  0.00    +0.010 A 
ATOM     11  C   UNL     1       9.468  -3.100   0.000  0.00  0.00    +0.001 A 
ATOM     12  C   UNL     1      10.767  -2.350   0.000  0.00  0.00    +0.001 A 
ATOM     13  C   UNL     1      10.767  -0.851   0.000  0.00  0.00    +0.008 A 
ATOM     14  C   UNL     1       9.468  -0.101   0.000  0.00  0.00    -0.016 A 
ATOM     15  C   UNL     1       9.468   1.400   0.000  0.00  0.00    +0.008 A 
ATOM     16  C   UNL     1       8.169   2.150   0.000  0.00  0.00    +0.002 A 
ATOM     17  C   UNL     1       6.870   1.400   0.000  0.00  0.00    +0.024 A 
ENDBRANCH   6   8
BRANCH   5   4
ATOM      1  C   UNL     1       4.272   4.399   0.000  0.00  0.00    +0.000 A 
ATOM      2  C   UNL     1       2.973   3.650   0.000  0.00  0.00    +0.001 A 
ATOM      3  C   UNL     1       2.973   2.150   0.000  0.00  0.00    +0.013 A 
ATOM      4  C   UNL     1       4.272   1.400   0.000  0.00  0.00    +0.037 A 
ATOM     19  C   UNL     1       5.571   2.150   0.000  0.00  0.00    +0.013 A 
ATOM     20  C   UNL     1       5.571   3.650   0.000  0.00  0.00    +0.001 A 
ENDBRANCH   5   4
TORSDOF 2