REMARK  Name = 84100
REMARK  3 active torsions:
REMARK  status: ('A' for Active; 'I' for Inactive)
REMARK    1  A    between atoms: C_10  and  C_12
REMARK    2  A    between atoms: C_23  and  C_25
REMARK    3  A    between atoms: C_31  and  C_32
REMARK                            x       y       z     vdW  Elec       q    Type
REMARK                         _______ _______ _______ _____ _____    ______ ____
ROOT
ATOM      1  O   UNL     1     -11.935  -1.037   0.000  0.00  0.00    -0.464 OA
ATOM      2  C   UNL     1     -11.054  -2.250   0.000  0.00  0.00    +0.320 C 
ATOM     19  N   UNL     1     -11.935  -3.464   0.000  0.00  0.00    -0.302 N 
ATOM     20  H   UNL     1     -11.472  -4.890   0.000  0.00  0.00    +0.150 HD
ATOM     21  C   UNL     1     -13.362  -3.000   0.000  0.00  0.00    +0.073 A 
ATOM     22  C   UNL     1     -14.661  -3.750   0.000  0.00  0.00    +0.035 A 
ATOM     23  C   UNL     1     -15.960  -3.000   0.000  0.00  0.00    -0.016 A 
ATOM     30  C   UNL     1     -15.960  -1.500   0.000  0.00  0.00    +0.012 A 
ATOM     31  C   UNL     1     -14.661  -0.750   0.000  0.00  0.00    +0.048 A 
ATOM     32  C   UNL     1     -13.362  -1.500   0.000  0.00  0.00    +0.144 A 
ENDROOT
BRANCH   2   3
ATOM      3  C   UNL     1      -9.553  -2.250   0.000  0.00  0.00    +0.320 C 
ATOM      4  O   UNL     1      -8.672  -1.037   0.000  0.00  0.00    -0.464 OA
ATOM      5  C   UNL     1      -7.245  -1.500   0.000  0.00  0.00    +0.144 A 
ATOM      6  C   UNL     1      -7.245  -3.000   0.000  0.00  0.00    +0.073 A 
ATOM      7  C   UNL     1      -5.946  -3.750   0.000  0.00  0.00    +0.035 A 
ATOM      8  C   UNL     1      -4.647  -3.000   0.000  0.00  0.00    -0.016 A 
ATOM     15  C   UNL     1      -4.647  -1.500   0.000  0.00  0.00    +0.012 A 
ATOM     16  C   UNL     1      -5.946  -0.750   0.000  0.00  0.00    +0.048 A 
ATOM     17  N   UNL     1      -8.672  -3.463   0.000  0.00  0.00    -0.302 N 
ATOM     18  H   UNL     1      -9.135  -4.890   0.000  0.00  0.00    +0.150 HD
BRANCH   8   9
ATOM      9  C   UNL     1      -3.348  -3.750   0.000  0.00  0.00    -0.018 A 
ATOM     10  C   UNL     1      -2.049  -3.000   0.000  0.00  0.00    +0.008 A 
ATOM     11  C   UNL     1      -0.750  -3.750   0.000  0.00  0.00    +0.001 A 
ATOM     12  C   UNL     1      -0.750  -5.250   0.000  0.00  0.00    +0.000 A 
ATOM     13  C   UNL     1      -2.049  -6.000   0.000  0.00  0.00    +0.001 A 
ATOM     14  C   UNL     1      -3.348  -5.250   0.000  0.00  0.00    +0.008 A 
ENDBRANCH   8   9
ENDBRANCH   2   3
BRANCH  23  24
ATOM     24  C   UNL     1     -17.259  -3.750   0.000  0.00  0.00    -0.018 A 
ATOM     25  C   UNL     1     -18.558  -3.000   0.000  0.00  0.00    +0.008 A 
ATOM     26  C   UNL     1     -19.857  -3.750   0.000  0.00  0.00    +0.001 A 
ATOM     27  C   UNL     1     -19.857  -5.250   0.000  0.00  0.00    +0.000 A 
ATOM     28  C   UNL     1     -18.558  -6.000   0.000  0.00  0.00    +0.001 A 
ATOM     29  C   UNL     1     -17.259  -5.250   0.000  0.00  0.00    +0.008 A 
ENDBRANCH  23  24
TORSDOF 3