REMARK  Name = 83237
REMARK  3 active torsions:
REMARK  status: ('A' for Active; 'I' for Inactive)
REMARK    1  A    between atoms: C_5  and  C_15
REMARK    2  A    between atoms: C_9  and  O_14
REMARK    3  A    between atoms: C_9  and  C_15
REMARK                            x       y       z     vdW  Elec       q    Type
REMARK                         _______ _______ _______ _____ _____    ______ ____
ROOT
ATOM      1  H   UNL     1      -0.433   2.250   0.000  0.00  0.00    +0.122 HD
ATOM      2  N   UNL     1       0.866   3.000   0.000  0.00  0.00    -0.316 NA
ATOM      3  C   UNL     1       2.165   2.250   0.000  0.00  0.00    +0.083 C 
ATOM      4  C   UNL     1       3.464   3.000   0.000  0.00  0.00    +0.050 C 
ATOM      5  C   UNL     1       3.464   4.500   0.000  0.00  0.00    +0.072 C 
ATOM     15  C   UNL     1       2.165   5.250   0.000  0.00  0.00    +0.050 C 
ATOM     16  C   UNL     1       0.866   4.500   0.000  0.00  0.00    +0.083 C 
ENDROOT
BRANCH   5  13
ATOM     13  O   UNL     1       3.977   5.910   0.000  0.00  0.00    -0.388 OA
ATOM     14  H   UNL     1       4.932   6.078   0.000  0.00  0.00    +0.210 HD
ENDBRANCH   5  13
BRANCH   5   6
ATOM      6  C   UNL     1       4.941   4.240   0.000  0.00  0.00    +0.070 C 
BRANCH   6   7
ATOM      7  C   UNL     1       5.905   5.389   0.000  0.00  0.00    -0.045 A 
ATOM      8  C   UNL     1       7.383   5.128   0.000  0.00  0.00    +0.004 A 
ATOM      9  C   UNL     1       8.347   6.277   0.000  0.00  0.00    +0.000 A 
ATOM     10  C   UNL     1       7.834   7.687   0.000  0.00  0.00    +0.000 A 
ATOM     11  C   UNL     1       6.356   7.947   0.000  0.00  0.00    +0.000 A 
ATOM     12  C   UNL     1       5.392   6.798   0.000  0.00  0.00    +0.004 A 
ENDBRANCH   6   7
ENDBRANCH   5   6
TORSDOF 3