REMARK  Name = 82339
REMARK  1 active torsions:
REMARK  status: ('A' for Active; 'I' for Inactive)
REMARK    1  A    between atoms: C_1  and  C_7
REMARK                            x       y       z     vdW  Elec       q    Type
REMARK                         _______ _______ _______ _____ _____    ______ ____
ROOT
ATOM      1  C   UNL     1       5.215   2.138   0.000  0.00  0.00    +0.159 C 
ATOM      8  N   UNL     1       5.942   3.449   0.000  0.00  0.00    -0.282 NA
ATOM      9  C   UNL     1       7.078   2.819   0.000  0.00  0.00    +0.101 C 
ATOM     10  C   UNL     1       7.100   1.520   0.000  0.00  0.00    +0.101 C 
ATOM     11  C   UNL     1       7.442   3.475   0.000  0.00  0.00    +0.087 C 
ATOM     12  C   UNL     1       8.214   2.189   0.000  0.00  0.00    +0.031 C 
ATOM     13  C   UNL     1       7.486   0.877   0.000  0.00  0.00    +0.087 C 
ATOM     14  N   UNL     1       5.986   0.852   0.000  0.00  0.00    -0.282 NA
ENDROOT
BRANCH   1   2
ATOM      2  C   UNL     1       3.715   2.112   0.000  0.00  0.00    -0.013 A 
ATOM      3  C   UNL     1       2.987   0.801   0.000  0.00  0.00    +0.026 A 
ATOM      4  C   UNL     1       1.487   0.775   0.000  0.00  0.00    +0.111 A 
ATOM      5  N   UNL     1       0.715   2.062   0.000  0.00  0.00    -0.263 NA
ATOM      6  C   UNL     1       1.443   3.373   0.000  0.00  0.00    +0.111 A 
ATOM      7  C   UNL     1       2.943   3.398   0.000  0.00  0.00    +0.026 A 
ENDBRANCH   1   2
TORSDOF 1