REMARK  Name = 80141
REMARK  1 active torsions:
REMARK  status: ('A' for Active; 'I' for Inactive)
REMARK    1  A    between atoms: C_9  and  N_16
REMARK                            x       y       z     vdW  Elec       q    Type
REMARK                         _______ _______ _______ _____ _____    ______ ____
ROOT
ATOM      1 CL   UNL     1      -0.750  -0.750   0.000  0.00  0.00    -0.082 Cl
ATOM      2  C   UNL     1      -2.049  -1.500   0.000  0.00  0.00    +0.060 A 
ATOM      3  C   UNL     1      -2.049  -3.000   0.000  0.00  0.00    +0.060 A 
ATOM      4  C   UNL     1      -3.348  -3.750   0.000  0.00  0.00    +0.030 A 
ATOM      5  C   UNL     1      -4.647  -3.000   0.000  0.00  0.00    -0.013 A 
ATOM      6  C   UNL     1      -6.074  -3.463   0.000  0.00  0.00    -0.014 A 
ATOM      7  C   UNL     1      -6.684  -4.834   0.000  0.00  0.00    +0.010 A 
ATOM      8  C   UNL     1      -8.176  -4.991   0.000  0.00  0.00    +0.023 A 
ATOM      9  C   UNL     1      -9.057  -3.777   0.000  0.00  0.00    +0.025 A 
ATOM     13  C   UNL     1      -8.447  -2.407   0.000  0.00  0.00    +0.027 A 
ATOM     14  C   UNL     1      -6.955  -2.250   0.000  0.00  0.00    -0.034 A 
ATOM     15  C   UNL     1      -6.074  -1.037   0.000  0.00  0.00    +0.071 C 
ATOM     16  C   UNL     1      -4.647  -1.500   0.000  0.00  0.00    -0.034 A 
ATOM     17 CL   UNL     1      -0.750  -3.750   0.000  0.00  0.00    -0.082 Cl
ATOM     18  C   UNL     1      -3.348  -0.750   0.000  0.00  0.00    +0.026 A 
ENDROOT
BRANCH   9  10
ATOM     10  N   UNL     1     -10.549  -3.934   0.000  0.00  0.00    -0.358 N 
ATOM     11  H   UNL     1     -10.949  -4.833   0.000  0.00  0.00    +0.142 HD
ATOM     12  H   UNL     1     -11.128  -3.137   0.000  0.00  0.00    +0.142 HD
ENDBRANCH   9  10
TORSDOF 1