REMARK  Name = 81462
REMARK  0 active torsions:
REMARK  status: ('A' for Active; 'I' for Inactive)
REMARK                            x       y       z     vdW  Elec       q    Type
REMARK                         _______ _______ _______ _____ _____    ______ ____
ROOT
ATOM      1  N   UNL     1       5.439   0.726   0.000  0.00  0.00    -0.256 NA
ATOM      2  C   UNL     1       5.439  -0.774   0.000  0.00  0.00    +0.128 C 
ATOM      3  N   UNL     1       4.140  -1.524   0.000  0.00  0.00    -0.301 NA
ATOM      4  H   UNL     1       4.140  -2.544   0.000  0.00  0.00    +0.123 HD
ATOM      5  C   UNL     1       2.841  -0.774   0.000  0.00  0.00    +0.085 C 
ATOM      6  C   UNL     1       2.841   0.726   0.000  0.00  0.00    +0.050 C 
ATOM      7  C   UNL     1       6.738  -1.524   0.000  0.00  0.00    +0.050 C 
ATOM      8  C   UNL     1       8.037  -0.774   0.000  0.00  0.00    +0.085 C 
ATOM      9  N   UNL     1       8.037   0.726   0.000  0.00  0.00    -0.301 NA
ATOM     10  H   UNL     1       8.920   1.236   0.000  0.00  0.00    +0.123 HD
ATOM     11  C   UNL     1       4.140   1.476   0.000  0.00  0.00    +0.128 C 
ATOM     12  N   UNL     1       4.140   2.976   0.000  0.00  0.00    -0.301 NA
ATOM     13  H   UNL     1       3.257   3.486   0.000  0.00  0.00    +0.123 HD
ATOM     14  C   UNL     1       5.439   3.726   0.000  0.00  0.00    +0.085 C 
ATOM     15  C   UNL     1       6.738   2.976   0.000  0.00  0.00    +0.050 C 
ATOM     16  C   UNL     1       6.738   1.476   0.000  0.00  0.00    +0.128 C 
ENDROOT
TORSDOF 0