REMARK  Name = 83076
REMARK  4 active torsions:
REMARK  status: ('A' for Active; 'I' for Inactive)
REMARK    1  A    between atoms: C_3  and  C_8
REMARK    2  A    between atoms: C_4  and  C_7
REMARK    3  A    between atoms: C_8  and  O_10
REMARK    4  A    between atoms: O_10  and  C_11
REMARK                            x       y       z     vdW  Elec       q    Type
REMARK                         _______ _______ _______ _____ _____    ______ ____
ROOT
ATOM      1  N   UNL     1       0.924   1.400   0.000  0.00  0.00    -0.262 NA
ATOM      2  C   UNL     1       2.223   2.150   0.000  0.00  0.00    +0.125 A 
ATOM      3  C   UNL     1       2.223   3.650   0.000  0.00  0.00    +0.077 A 
ATOM      8  C   UNL     1       0.924   4.399   0.000  0.00  0.00    +0.021 A 
ATOM      9  C   UNL     1      -0.375   3.650   0.000  0.00  0.00    -0.032 A 
ATOM     10  C   UNL     1      -1.674   4.399   0.000  0.00  0.00    +0.045 C 
ATOM     11  C   UNL     1      -0.375   2.150   0.000  0.00  0.00    +0.114 A 
ENDROOT
BRANCH   3   4
ATOM      4  C   UNL     1       3.522   4.399   0.000  0.00  0.00    +0.340 C 
ATOM      7  O   UNL     1       4.821   3.650   0.000  0.00  0.00    -0.245 OA
BRANCH   4   5
ATOM      5  O   UNL     1       3.522   5.899   0.000  0.00  0.00    -0.464 OA
ATOM      6  C   UNL     1       2.223   6.649   0.000  0.00  0.00    +0.280 C 
ENDBRANCH   4   5
ENDBRANCH   3   4
TORSDOF 2