REMARK  Name = 85326
REMARK  5 active torsions:
REMARK  status: ('A' for Active; 'I' for Inactive)
REMARK    1  A    between atoms: C_4  and  N_13
REMARK    2  A    between atoms: N_8  and  C_9
REMARK    3  A    between atoms: C_9  and  C_10
REMARK    4  A    between atoms: C_10  and  C_11
REMARK    5  A    between atoms: C_11  and  C_12
REMARK                            x       y       z     vdW  Elec       q    Type
REMARK                         _______ _______ _______ _____ _____    ______ ____
ROOT
ATOM      1  N   UNL     1       2.049   3.000   0.000  0.00  0.00    -0.216 NA
ATOM      2  C   UNL     1       3.348   2.250   0.000  0.00  0.00    +0.202 A 
ATOM      3  C   UNL     1       4.647   3.000   0.000  0.00  0.00    +0.330 A 
ATOM      7  C   UNL     1       4.647   4.500   0.000  0.00  0.00    +0.202 A 
ATOM      8  N   UNL     1       5.946   5.250   0.000  0.00  0.00    -0.324 N 
ATOM      9  H   UNL     1       5.946   6.234   0.000  0.00  0.00    +0.148 HD
ATOM     14  N   UNL     1       3.348   5.250   0.000  0.00  0.00    -0.193 NA
ATOM     15  C   UNL     1       2.049   4.500   0.000  0.00  0.00    +0.215 A 
ATOM     16  N   UNL     1       0.750   5.250   0.000  0.00  0.00    -0.327 N 
ATOM     17  H   UNL     1      -0.103   4.758   0.000  0.00  0.00    +0.145 HD
ATOM     18  H   UNL     1       0.750   6.234   0.000  0.00  0.00    +0.145 HD
ENDROOT
BRANCH   3   4
ATOM      4  N   UNL     1       5.946   2.250   0.000  0.00  0.00    +0.085 N 
ATOM      5  O   UNL     1       5.946   0.750   0.000  0.00  0.00    +0.042 OA
ATOM      6  O   UNL     1       7.245   3.000   0.000  0.00  0.00    -0.576 OA
ENDBRANCH   3   4
BRANCH   8  10
ATOM     10  C   UNL     1       7.245   4.500   0.000  0.00  0.00    +0.103 C 
BRANCH  10  11
ATOM     11  C   UNL     1       8.544   5.250   0.000  0.00  0.00    +0.018 C 
BRANCH  11  12
ATOM     12  C   UNL     1       9.843   4.500   0.000  0.00  0.00    -0.002 C 
ATOM     13  C   UNL     1      11.142   5.250   0.000  0.00  0.00    +0.004 C 
ENDBRANCH  11  12
ENDBRANCH  10  11
ENDBRANCH   8  10
TORSDOF 4