REMARK  Name = 84200
REMARK  5 active torsions:
REMARK  status: ('A' for Active; 'I' for Inactive)
REMARK    1  A    between atoms: C_4  and  C_8
REMARK    2  A    between atoms: C_5  and  O_12
REMARK    3  A    between atoms: C_8  and  N_9
REMARK    4  A    between atoms: N_9  and  C_10
REMARK    5  A    between atoms: N_9  and  C_11
REMARK                            x       y       z     vdW  Elec       q    Type
REMARK                         _______ _______ _______ _____ _____    ______ ____
ROOT
ATOM      1  C   UNL     1       2.049   3.750   0.000  0.00  0.00    -0.004 C 
ATOM      2  C   UNL     1       3.348   3.000   0.000  0.00  0.00    +0.035 C 
ATOM      7  C   UNL     1       3.348   1.500   0.000  0.00  0.00    +0.122 C 
ATOM     10  C   UNL     1       2.049   0.750   0.000  0.00  0.00    +0.018 C 
ATOM     11  C   UNL     1       0.750   1.500   0.000  0.00  0.00    +0.006 C 
ATOM     12  C   UNL     1       0.750   3.000   0.000  0.00  0.00    +0.004 C 
ATOM     13  C   UNL     1       2.915   2.250   0.000  0.00  0.00    +0.010 C 
ENDROOT
BRANCH   7   8
ATOM      8  O   UNL     1       4.647   0.750   0.000  0.00  0.00    -0.391 OA
ATOM      9  H   UNL     1       4.647  -0.220   0.000  0.00  0.00    +0.210 HD
ENDBRANCH   7   8
BRANCH   2   3
ATOM      3  C   UNL     1       4.647   3.750   0.000  0.00  0.00    +0.090 C 
BRANCH   3   4
ATOM      4  N   UNL     1       5.946   3.000   0.000  0.00  0.00    -0.308 NA
ATOM      5  C   UNL     1       5.946   1.500   0.000  0.00  0.00    +0.104 C 
ATOM      6  C   UNL     1       7.245   3.750   0.000  0.00  0.00    +0.104 C 
ENDBRANCH   3   4
ENDBRANCH   2   3
TORSDOF 3