REMARK  Name = 79887
REMARK  10 active torsions:
REMARK  status: ('A' for Active; 'I' for Inactive)
REMARK    1  A    between atoms: C_3  and  N_15
REMARK    2  A    between atoms: C_8  and  C_11
REMARK    3  A    between atoms: C_8  and  C_12
REMARK    4  A    between atoms: C_11  and  O_14
REMARK    5  A    between atoms: C_12  and  O_13
REMARK    6  A    between atoms: O_13  and  C_17
REMARK    7  A    between atoms: O_14  and  C_19
REMARK    8  A    between atoms: N_15  and  C_16
REMARK    9  A    between atoms: C_17  and  C_18
REMARK   10  A    between atoms: C_19  and  C_20
REMARK                            x       y       z     vdW  Elec       q    Type
REMARK                         _______ _______ _______ _____ _____    ______ ____
ROOT
ATOM     10  C   UNL     1       4.647  -5.250   0.000  0.00  0.00    +0.094 C 
ATOM     11  C   UNL     1       4.647  -3.750   0.000  0.00  0.00    +0.156 C 
ENDROOT
BRANCH  10   8
ATOM      8  N   UNL     1       5.946  -6.000   0.000  0.00  0.00    -0.318 N 
ATOM      9  H   UNL     1       5.946  -6.984   0.000  0.00  0.00    +0.152 HD
BRANCH   8   7
ATOM      1  C   UNL     1       8.544  -6.000   0.000  0.00  0.00    +0.025 A 
ATOM      2  C   UNL     1       9.843  -5.250   0.000  0.00  0.00    +0.002 A 
ATOM      3  C   UNL     1       9.843  -3.750   0.000  0.00  0.00    +0.002 A 
ATOM      4  C   UNL     1       8.544  -3.000   0.000  0.00  0.00    +0.022 A 
ATOM      5  C   UNL     1       7.245  -3.750   0.000  0.00  0.00    +0.062 A 
ATOM      6 CL   UNL     1       5.946  -3.000   0.000  0.00  0.00    -0.082 Cl
ATOM      7  C   UNL     1       7.245  -5.250   0.000  0.00  0.00    +0.049 A 
ENDBRANCH   8   7
ENDBRANCH  10   8
BRANCH  11  12
ATOM     12  C   UNL     1       5.946  -3.000   0.000  0.00  0.00    +0.347 C 
ATOM     16  O   UNL     1       5.946  -1.500   0.000  0.00  0.00    -0.245 OA
BRANCH  12  13
ATOM     13  O   UNL     1       7.245  -3.750   0.000  0.00  0.00    -0.461 OA
BRANCH  13  14
ATOM     14  C   UNL     1       7.245  -5.250   0.000  0.00  0.00    +0.229 C 
ATOM     15  C   UNL     1       5.946  -6.000   0.000  0.00  0.00    +0.048 C 
ENDBRANCH  13  14
ENDBRANCH  12  13
ENDBRANCH  11  12
BRANCH  11  17
ATOM     17  C   UNL     1       3.348  -3.000   0.000  0.00  0.00    +0.347 C 
ATOM     21  O   UNL     1       3.348  -1.500   0.000  0.00  0.00    -0.245 OA
BRANCH  17  18
ATOM     18  O   UNL     1       2.049  -3.750   0.000  0.00  0.00    -0.461 OA
BRANCH  18  19
ATOM     19  C   UNL     1       0.750  -3.000   0.000  0.00  0.00    +0.229 C 
ATOM     20  C   UNL     1       0.750  -1.500   0.000  0.00  0.00    +0.048 C 
ENDBRANCH  18  19
ENDBRANCH  17  18
ENDBRANCH  11  17
TORSDOF 8