REMARK  Name = 80807
REMARK  3 active torsions:
REMARK  status: ('A' for Active; 'I' for Inactive)
REMARK    1  A    between atoms: C_4  and  C_11
REMARK    2  A    between atoms: C_5  and  C_13
REMARK    3  A    between atoms: C_13  and  O_15
REMARK                            x       y       z     vdW  Elec       q    Type
REMARK                         _______ _______ _______ _____ _____    ______ ____
ROOT
ATOM      1  S   UNL     1      -5.664   5.542   0.000  0.00  0.00    -0.061 S 
ATOM      2  C   UNL     1      -6.779   6.546   0.000  0.00  0.00    +0.068 A 
ATOM      3  C   UNL     1      -8.078   5.796   0.000  0.00  0.00    +0.120 A 
ATOM      4  N   UNL     1      -7.766   4.328   0.000  0.00  0.00    -0.233 NA
ATOM      5  C   UNL     1      -6.274   4.172   0.000  0.00  0.00    +0.165 A 
ATOM      6  N   UNL     1      -5.524   2.873   0.000  0.00  0.00    -0.261 N 
ATOM      7  H   UNL     1      -4.540   2.873   0.000  0.00  0.00    +0.157 HD
ATOM      8  C   UNL     1      -6.274   1.574   0.000  0.00  0.00    +0.243 C 
ATOM      9  O   UNL     1      -7.774   1.574   0.000  0.00  0.00    -0.270 OA
ENDROOT
BRANCH   8  10
ATOM     10  C   UNL     1      -5.524   0.275   0.000  0.00  0.00    +0.074 C 
ATOM     11  C   UNL     1      -4.024   0.275   0.000  0.00  0.00    +0.096 C 
BRANCH  11  12
ATOM     12  C   UNL     1      -3.275   1.574   0.000  0.00  0.00    +0.330 C 
ATOM     15  O   UNL     1      -1.775   1.574   0.000  0.00  0.00    -0.246 OA
BRANCH  12  13
ATOM     13  O   UNL     1      -4.024   2.873   0.000  0.00  0.00    -0.478 OA
ATOM     14  H   UNL     1      -3.556   3.684   0.000  0.00  0.00    +0.295 HD
ENDBRANCH  12  13
ENDBRANCH  11  12
ENDBRANCH   8  10
TORSDOF 3