REMARK  Name = 81660
REMARK  6 active torsions:
REMARK  status: ('A' for Active; 'I' for Inactive)
REMARK    1  A    between atoms: C_4  and  C_9
REMARK    2  A    between atoms: C_4  and  C_10
REMARK    3  A    between atoms: C_5  and  C_11
REMARK    4  A    between atoms: C_6  and  C_7
REMARK    5  A    between atoms: C_6  and  C_8
REMARK    6  A    between atoms: C_11  and  O_13
REMARK                            x       y       z     vdW  Elec       q    Type
REMARK                         _______ _______ _______ _____ _____    ______ ____
ROOT
ATOM      1  S   UNL     1      -1.886   0.837   0.000  0.00  0.00    -0.127 S 
ATOM      2  C   UNL     1      -1.416  -0.587   0.000  0.00  0.00    +0.042 C 
ATOM      3  C   UNL     1      -1.252  -2.078   0.000  0.00  0.00    +0.025 C 
ATOM      4  C   UNL     1      -2.882  -0.906   0.000  0.00  0.00    +0.025 C 
ATOM      5  C   UNL     1       0.084  -0.580   0.000  0.00  0.00    +0.201 C 
ATOM     10  N   UNL     1       0.541   0.849   0.000  0.00  0.00    -0.275 N 
ATOM     11  C   UNL     1       1.965   1.319   0.000  0.00  0.00    +0.330 C 
ATOM     12  O   UNL     1       3.085   0.320   0.000  0.00  0.00    -0.279 OA
ATOM     13  C   UNL     1      -0.677   1.725   0.000  0.00  0.00    +0.079 C 
ATOM     14  C   UNL     1       0.322   2.844   0.000  0.00  0.00    +0.043 C 
ATOM     15  C   UNL     1      -1.686   2.835   0.000  0.00  0.00    +0.043 C 
ENDROOT
BRANCH   5   6
ATOM      6  C   UNL     1       0.971  -1.790   0.000  0.00  0.00    +0.327 C 
ATOM      9  O   UNL     1       2.462  -1.626   0.000  0.00  0.00    -0.249 OA
BRANCH   6   7
ATOM      7  O   UNL     1       0.367  -3.163   0.000  0.00  0.00    -0.479 OA
ATOM      8  H   UNL     1      -0.564  -3.265   0.000  0.00  0.00    +0.295 HD
ENDBRANCH   6   7
ENDBRANCH   5   6
TORSDOF 2