REMARK  Name = 85433
REMARK  5 active torsions:
REMARK  status: ('A' for Active; 'I' for Inactive)
REMARK    1  A    between atoms: C_6  and  O_22
REMARK    2  A    between atoms: C_8  and  C_20
REMARK    3  A    between atoms: C_15  and  C_20
REMARK    4  A    between atoms: C_16  and  C_18
REMARK    5  A    between atoms: C_18  and  C_19
REMARK                            x       y       z     vdW  Elec       q    Type
REMARK                         _______ _______ _______ _____ _____    ______ ____
ROOT
ATOM      6  C   UNL     1       1.358  -6.883   0.000  0.00  0.00    +0.197 C 
ATOM      7  O   UNL     1       0.059  -6.133   0.000  0.00  0.00    -0.287 OA
ENDROOT
BRANCH   6   5
ATOM      1  O   UNL     1       0.608 -10.691   0.000  0.00  0.00    -0.459 OA
ATOM      2  C   UNL     1       0.144  -9.264   0.000  0.00  0.00    +0.117 A 
ATOM      5  C   UNL     1       1.358  -8.383   0.000  0.00  0.00    +0.071 A 
ATOM     18  C   UNL     1       2.571  -9.264   0.000  0.00  0.00    +0.031 A 
ATOM     19  C   UNL     1       4.039  -8.953   0.000  0.00  0.00    +0.012 A 
ATOM     20  C   UNL     1       5.042 -10.067   0.000  0.00  0.00    +0.001 A 
ATOM     21  C   UNL     1       4.579 -11.494   0.000  0.00  0.00    +0.004 A 
ATOM     22  C   UNL     1       3.111 -11.806   0.000  0.00  0.00    +0.047 A 
ATOM     23  C   UNL     1       2.108 -10.691   0.000  0.00  0.00    +0.136 A 
BRANCH   2   3
ATOM      3  C   UNL     1      -1.282  -8.801   0.000  0.00  0.00    +0.072 C 
ATOM      4  C   UNL     1      -1.594  -7.334   0.000  0.00  0.00    +0.012 C 
ENDBRANCH   2   3
ENDBRANCH   6   5
BRANCH   6   8
ATOM      8  C   UNL     1       2.657  -6.133   0.000  0.00  0.00    +0.025 A 
ATOM      9  C   UNL     1       3.956  -6.883   0.000  0.00  0.00    +0.030 A 
ATOM     10  C   UNL     1       5.255  -6.133   0.000  0.00  0.00    +0.061 A 
ATOM     11  C   UNL     1       5.255  -4.633   0.000  0.00  0.00    +0.145 A 
ATOM     14  C   UNL     1       3.956  -3.883   0.000  0.00  0.00    +0.061 A 
ATOM     15 BR   UNL     1       3.956  -2.383   0.000  0.00  0.00    -0.046 Br
ATOM     16 BR   UNL     1       6.554  -6.883   0.000  0.00  0.00    -0.046 Br
ATOM     17  C   UNL     1       2.657  -4.633   0.000  0.00  0.00    +0.030 A 
BRANCH  11  12
ATOM     12  O   UNL     1       6.554  -3.883   0.000  0.00  0.00    -0.505 OA
ATOM     13  H   UNL     1       7.365  -4.351   0.000  0.00  0.00    +0.292 HD
ENDBRANCH  11  12
ENDBRANCH   6   8
TORSDOF 4