REMARK  Name = 8675
REMARK  16 active torsions:
REMARK  status: ('A' for Active; 'I' for Inactive)
REMARK    1  A    between atoms: C_2  and  C_10
REMARK    2  A    between atoms: C_2  and  C_16
REMARK    3  A    between atoms: C_12  and  N_26
REMARK    4  A    between atoms: C_19  and  N_21
REMARK    5  A    between atoms: N_21  and  C_22
REMARK    6  A    between atoms: N_21  and  C_24
REMARK    7  A    between atoms: C_22  and  C_23
REMARK    8  A    between atoms: C_24  and  C_25
REMARK    9  A    between atoms: N_26  and  C_27
REMARK   10  A    between atoms: N_26  and  C_29
REMARK   11  A    between atoms: C_27  and  C_28
REMARK   12  A    between atoms: C_29  and  C_30
REMARK   13  A    between atoms: N_31  and  C_32
REMARK   14  A    between atoms: N_31  and  C_34
REMARK   15  A    between atoms: C_32  and  C_33
REMARK   16  A    between atoms: C_34  and  C_35
REMARK                            x       y       z     vdW  Elec       q    Type
REMARK                         _______ _______ _______ _____ _____    ______ ____
ROOT
ATOM      1  C   UNL     1      -9.595  -7.500   0.000  0.00  0.00    -0.004 C 
ATOM     24  C   UNL     1      -9.595  -6.000   0.000  0.00  0.00    -0.016 C 
ATOM     25  C   UNL     1     -10.894  -5.250   0.000  0.00  0.00    +0.015 C 
ATOM     26  C   UNL     1     -10.894  -3.750   0.000  0.00  0.00    +0.078 C 
ATOM     27  C   UNL     1      -9.595  -3.000   0.000  0.00  0.00    +0.203 C 
ATOM     28  N   UNL     1      -9.595  -1.500   0.000  0.00  0.00    -0.229 N 
ATOM     33  C   UNL     1      -8.296  -3.750   0.000  0.00  0.00    +0.078 C 
ATOM     34  C   UNL     1      -8.296  -5.250   0.000  0.00  0.00    +0.015 C 
ENDROOT
BRANCH   1   2
ATOM      2  C   UNL     1     -10.894  -8.250   0.000  0.00  0.00    -0.017 A 
ATOM      3  C   UNL     1     -10.894  -9.750   0.000  0.00  0.00    +0.010 A 
ATOM      4  C   UNL     1     -12.193 -10.500   0.000  0.00  0.00    +0.024 A 
ATOM      5  C   UNL     1     -13.492  -9.750   0.000  0.00  0.00    +0.030 A 
ATOM     11  C   UNL     1     -13.492  -8.250   0.000  0.00  0.00    +0.024 A 
ATOM     12  C   UNL     1     -12.193  -7.500   0.000  0.00  0.00    +0.010 A 
BRANCH   5   6
ATOM      6  N   UNL     1     -14.791 -10.500   0.000  0.00  0.00    -0.330 N 
BRANCH   6   7
ATOM      7  C   UNL     1     -14.791 -12.000   0.000  0.00  0.00    +0.102 C 
ATOM      8  C   UNL     1     -16.090 -12.750   0.000  0.00  0.00    +0.024 C 
ENDBRANCH   6   7
BRANCH   6   9
ATOM      9  C   UNL     1     -16.090  -9.750   0.000  0.00  0.00    +0.102 C 
ATOM     10  C   UNL     1     -17.389 -10.500   0.000  0.00  0.00    +0.024 C 
ENDBRANCH   6   9
ENDBRANCH   5   6
ENDBRANCH   1   2
BRANCH   1  13
ATOM     13  C   UNL     1      -8.296  -8.250   0.000  0.00  0.00    -0.017 A 
ATOM     14  C   UNL     1      -8.296  -9.750   0.000  0.00  0.00    +0.010 A 
ATOM     15  C   UNL     1      -6.997 -10.500   0.000  0.00  0.00    +0.024 A 
ATOM     16  C   UNL     1      -5.698  -9.750   0.000  0.00  0.00    +0.030 A 
ATOM     22  C   UNL     1      -5.698  -8.250   0.000  0.00  0.00    +0.024 A 
ATOM     23  C   UNL     1      -6.997  -7.500   0.000  0.00  0.00    +0.010 A 
BRANCH  16  17
ATOM     17  N   UNL     1      -4.399 -10.500   0.000  0.00  0.00    -0.330 N 
BRANCH  17  18
ATOM     18  C   UNL     1      -4.399 -12.000   0.000  0.00  0.00    +0.102 C 
ATOM     19  C   UNL     1      -3.100 -12.750   0.000  0.00  0.00    +0.024 C 
ENDBRANCH  17  18
BRANCH  17  20
ATOM     20  C   UNL     1      -3.100  -9.750   0.000  0.00  0.00    +0.102 C 
ATOM     21  C   UNL     1      -1.801 -10.500   0.000  0.00  0.00    +0.024 C 
ENDBRANCH  17  20
ENDBRANCH  16  17
ENDBRANCH   1  13
BRANCH  28  29
ATOM     29  C   UNL     1      -8.296  -0.750   0.000  0.00  0.00    +0.347 C 
ATOM     30  C   UNL     1      -6.997  -1.500   0.000  0.00  0.00    +0.082 C 
ENDBRANCH  28  29
BRANCH  28  31
ATOM     31  C   UNL     1     -10.894  -0.750   0.000  0.00  0.00    +0.347 C 
ATOM     32  C   UNL     1     -12.193  -1.500   0.000  0.00  0.00    +0.082 C 
ENDBRANCH  28  31
TORSDOF 10