REMARK  Name = 82269
REMARK  5 active torsions:
REMARK  status: ('A' for Active; 'I' for Inactive)
REMARK    1  A    between atoms: C_7  and  C_19
REMARK    2  A    between atoms: C_15  and  C_19
REMARK    3  A    between atoms: C_16  and  S_17
REMARK    4  A    between atoms: S_17  and  C_18
REMARK    5  A    between atoms: C_19  and  O_20
REMARK                            x       y       z     vdW  Elec       q    Type
REMARK                         _______ _______ _______ _____ _____    ______ ____
ROOT
ATOM      1  N   UNL     1      -4.362   0.115   0.000  0.00  0.00    -0.228 NA
ATOM      2  C   UNL     1      -3.903  -1.313   0.000  0.00  0.00    +0.190 A 
ATOM      5  N   UNL     1      -2.436  -1.629   0.000  0.00  0.00    -0.201 NA
ATOM      6  C   UNL     1      -1.429  -0.517   0.000  0.00  0.00    +0.182 A 
ATOM      7  C   UNL     1      -1.888   0.911   0.000  0.00  0.00    +0.104 A 
ATOM      8  N   UNL     1      -0.672   1.789   0.000  0.00  0.00    -0.337 N 
ATOM      9  H   UNL     1      -0.667   3.289   0.000  0.00  0.00    +0.167 HD
ATOM     10  C   UNL     1       0.539   0.903   0.000  0.00  0.00    +0.143 A 
ATOM     20  N   UNL     1       0.071  -0.522   0.000  0.00  0.00    -0.210 NA
ATOM     21  C   UNL     1      -3.355   1.227   0.000  0.00  0.00    +0.143 A 
ENDROOT
BRANCH   2   3
ATOM      3  S   UNL     1      -4.910  -2.424   0.000  0.00  0.00    -0.089 S 
ATOM      4  C   UNL     1      -6.376  -2.108   0.000  0.00  0.00    +0.093 C 
ENDBRANCH   2   3
BRANCH  10  11
ATOM     11  C   UNL     1       1.967   1.362   0.000  0.00  0.00    +0.210 C 
BRANCH  11  14
ATOM     14  C   UNL     1       3.078   0.355   0.000  0.00  0.00    -0.012 A 
ATOM     15  C   UNL     1       2.762  -1.111   0.000  0.00  0.00    +0.006 A 
ATOM     16  C   UNL     1       3.873  -2.118   0.000  0.00  0.00    +0.000 A 
ATOM     17  C   UNL     1       5.301  -1.659   0.000  0.00  0.00    +0.000 A 
ATOM     18  C   UNL     1       5.618  -0.193   0.000  0.00  0.00    +0.000 A 
ATOM     19  C   UNL     1       4.506   0.814   0.000  0.00  0.00    +0.006 A 
ENDBRANCH  11  14
BRANCH  11  12
ATOM     12  O   UNL     1       2.283   2.829   0.000  0.00  0.00    -0.379 OA
ATOM     13  H   UNL     1       3.206   3.126   0.000  0.00  0.00    +0.211 HD
ENDBRANCH  11  12
ENDBRANCH  10  11
TORSDOF 4