REMARK  Name = 79538
REMARK  5 active torsions:
REMARK  status: ('A' for Active; 'I' for Inactive)
REMARK    1  A    between atoms: N_3  and  C_7
REMARK    2  A    between atoms: C_4  and  C_14
REMARK    3  A    between atoms: C_5  and  C_12
REMARK    4  A    between atoms: C_12  and  O_13
REMARK    5  A    between atoms: C_14  and  O_15
REMARK                            x       y       z     vdW  Elec       q    Type
REMARK                         _______ _______ _______ _____ _____    ______ ____
ROOT
ATOM      1  N   UNL     1       3.537  -0.542   0.000  0.00  0.00    -0.131 NA
ATOM      2  C   UNL     1       4.287   0.757   0.000  0.00  0.00    +0.114 A 
ATOM      6  C   UNL     1       5.754   0.445   0.000  0.00  0.00    +0.096 A 
ATOM     10  N   UNL     1       5.911  -1.047   0.000  0.00  0.00    -0.214 N 
ATOM     17  N   UNL     1       4.540  -1.657   0.000  0.00  0.00    -0.060 NA
ENDROOT
BRANCH  10  11
ATOM     11  C   UNL     1       7.210  -1.797   0.000  0.00  0.00    +0.067 A 
ATOM     12  C   UNL     1       7.210  -3.297   0.000  0.00  0.00    +0.028 A 
ATOM     13  C   UNL     1       8.509  -4.047   0.000  0.00  0.00    +0.002 A 
ATOM     14  C   UNL     1       9.808  -3.297   0.000  0.00  0.00    +0.000 A 
ATOM     15  C   UNL     1       9.808  -1.797   0.000  0.00  0.00    +0.002 A 
ATOM     16  C   UNL     1       8.509  -1.047   0.000  0.00  0.00    +0.028 A 
ENDBRANCH  10  11
BRANCH   2   3
ATOM      3  C   UNL     1       3.677   2.127   0.000  0.00  0.00    +0.215 C 
BRANCH   3   4
ATOM      4  O   UNL     1       2.185   2.284   0.000  0.00  0.00    -0.389 OA
ATOM      5  H   UNL     1       1.790   3.170   0.000  0.00  0.00    +0.210 HD
ENDBRANCH   3   4
ENDBRANCH   2   3
BRANCH   6   7
ATOM      7  C   UNL     1       6.869   1.449   0.000  0.00  0.00    +0.213 C 
BRANCH   7   8
ATOM      8  O   UNL     1       6.557   2.916   0.000  0.00  0.00    -0.389 OA
ATOM      9  H   UNL     1       7.278   3.565   0.000  0.00  0.00    +0.210 HD
ENDBRANCH   7   8
ENDBRANCH   6   7
TORSDOF 5