REMARK  Name = 81018
REMARK  4 active torsions:
REMARK  status: ('A' for Active; 'I' for Inactive)
REMARK    1  A    between atoms: C_10  and  C_17
REMARK    2  A    between atoms: C_11  and  C_16
REMARK    3  A    between atoms: C_14  and  C_18
REMARK    4  A    between atoms: C_17  and  C_18
REMARK                            x       y       z     vdW  Elec       q    Type
REMARK                         _______ _______ _______ _____ _____    ______ ____
ROOT
ATOM      1  S   UNL     1      -8.119  -8.554   0.000  0.00  0.00    -0.013 S 
ATOM      2  C   UNL     1      -6.820  -7.804   0.000  0.00  0.00    +0.158 A 
ATOM      3  N   UNL     1      -5.521  -8.554   0.000  0.00  0.00    -0.339 N 
ATOM      4  H   UNL     1      -5.521 -10.054   0.000  0.00  0.00    +0.167 HD
ATOM      5  C   UNL     1      -4.222  -7.804   0.000  0.00  0.00    +0.023 A 
ATOM      6  C   UNL     1      -2.923  -8.554   0.000  0.00  0.00    +0.064 C 
ATOM      7  C   UNL     1      -4.222  -6.304   0.000  0.00  0.00    +0.036 A 
ATOM     15  C   UNL     1      -5.521  -5.554   0.000  0.00  0.00    +0.255 A 
ATOM     16  O   UNL     1      -5.521  -4.054   0.000  0.00  0.00    -0.267 OA
ATOM     17  N   UNL     1      -6.820  -6.304   0.000  0.00  0.00    -0.303 N 
ATOM     18  H   UNL     1      -8.119  -5.554   0.000  0.00  0.00    +0.171 HD
ENDROOT
BRANCH   7   8
ATOM      8  C   UNL     1      -2.923  -5.554   0.000  0.00  0.00    +0.047 C 
BRANCH   8   9
ATOM      9  C   UNL     1      -2.923  -4.054   0.000  0.00  0.00    +0.066 C 
BRANCH   9  10
ATOM     10  C   UNL     1      -1.624  -3.304   0.000  0.00  0.00    +0.251 C 
ATOM     11  O   UNL     1      -1.467  -1.812   0.000  0.00  0.00    -0.349 OA
ATOM     12  C   UNL     1       0.000  -1.500   0.000  0.00  0.00    +0.191 C 
ATOM     13  C   UNL     1       0.750  -2.799   0.000  0.00  0.00    +0.191 C 
ATOM     14  O   UNL     1      -0.254  -3.914   0.000  0.00  0.00    -0.349 OA
ENDBRANCH   9  10
ENDBRANCH   8   9
ENDBRANCH   7   8
TORSDOF 3