REMARK  Name = 81213
REMARK  3 active torsions:
REMARK  status: ('A' for Active; 'I' for Inactive)
REMARK    1  A    between atoms: C_4  and  S_8
REMARK    2  A    between atoms: C_5  and  N_12
REMARK    3  A    between atoms: S_8  and  N_11
REMARK                            x       y       z     vdW  Elec       q    Type
REMARK                         _______ _______ _______ _____ _____    ______ ____
ROOT
ATOM      1 CL   UNL     1      -6.020  -6.074   0.000  0.00  0.00    -0.083 Cl
ATOM      2  C   UNL     1      -4.721  -5.324   0.000  0.00  0.00    +0.048 A 
ATOM      3  C   UNL     1      -3.422  -6.074   0.000  0.00  0.00    +0.106 A 
ATOM      4  C   UNL     1      -2.123  -5.324   0.000  0.00  0.00    +0.301 A 
ATOM      8  C   UNL     1      -2.123  -3.824   0.000  0.00  0.00    +0.182 A 
ATOM     15  C   UNL     1      -3.422  -3.074   0.000  0.00  0.00    +0.037 A 
ATOM     16  C   UNL     1      -4.721  -3.824   0.000  0.00  0.00    +0.022 A 
ENDROOT
BRANCH   4   5
ATOM      5  N   UNL     1      -0.824  -6.074   0.000  0.00  0.00    +0.082 N 
ATOM      6  O   UNL     1      -0.824  -7.574   0.000  0.00  0.00    +0.042 OA
ATOM      7  O   UNL     1       0.475  -5.324   0.000  0.00  0.00    -0.576 OA
ENDBRANCH   4   5
BRANCH   8   9
ATOM      9  S   UNL     1      -0.824  -3.074   0.000  0.00  0.00    +0.062 S 
ATOM     13  O   UNL     1      -0.073  -4.373   0.000  0.00  0.00    -0.153 OA
ATOM     14  O   UNL     1      -1.574  -1.775   0.000  0.00  0.00    -0.153 OA
BRANCH   9  10
ATOM     10  N   UNL     1       0.475  -2.324   0.000  0.00  0.00    -0.203 NA
ATOM     11  H   UNL     1       0.476  -1.304   0.000  0.00  0.00    +0.144 HD
ATOM     12  H   UNL     1       1.359  -2.834   0.000  0.00  0.00    +0.144 HD
ENDBRANCH   9  10
ENDBRANCH   8   9
TORSDOF 3