REMARK  Name = 278619
REMARK  11 active torsions:
REMARK  status: ('A' for Active; 'I' for Inactive)
REMARK    1  A    between atoms: CA_1  and  N_3
REMARK    2  A    between atoms: CA_1  and  CB_4
REMARK    3  A    between atoms: CA_1  and  C_5
REMARK    4  A    between atoms: C_7  and  O_8
REMARK    5  A    between atoms: C_7  and  CA_10
REMARK    6  A    between atoms: C_7  and  CA_14
REMARK    7  A    between atoms: N_9  and  CA_14
REMARK    8  A    between atoms: CA_10  and  C_12
REMARK    9  A    between atoms: CA_10  and  N_15
REMARK   10  A    between atoms: C_11  and  CA_14
REMARK   11  A    between atoms: C_11  and  O_16
REMARK                            x       y       z     vdW  Elec       q    Type
REMARK                         _______ _______ _______ _____ _____    ______ ____
ROOT
ATOM      1 CL   UNL     1      -3.880   8.172   0.000  0.00  0.00    -0.145 Cl
ATOM      2  H   UNL     1      -2.550   8.172   0.000  0.00  0.00    +0.145 HD
ENDROOT
TORSDOF 0