REMARK  Name = 265211
REMARK  24 active torsions:
REMARK  status: ('A' for Active; 'I' for Inactive)
REMARK    1  A    between atoms: O_2  and  C_37
REMARK    2  A    between atoms: O_2  and  C_38
REMARK    3  A    between atoms: O_4  and  C_29
REMARK    4  A    between atoms: O_4  and  C_33
REMARK    5  A    between atoms: O_6  and  C_24
REMARK    6  A    between atoms: O_6  and  C_32
REMARK    7  A    between atoms: C_12  and  C_53
REMARK    8  A    between atoms: C_13  and  O_48
REMARK    9  A    between atoms: C_13  and  C_60
REMARK   10  A    between atoms: C_17  and  O_58
REMARK   11  A    between atoms: C_25  and  O_57
REMARK   12  A    between atoms: C_27  and  O_59
REMARK   13  A    between atoms: C_28  and  C_49
REMARK   14  A    between atoms: C_30  and  N_50
REMARK   15  A    between atoms: C_35  and  O_47
REMARK   16  A    between atoms: C_36  and  C_46
REMARK   17  A    between atoms: C_40  and  O_44
REMARK   18  A    between atoms: C_41  and  C_45
REMARK   19  A    between atoms: C_42  and  O_43
REMARK   20  A    between atoms: N_50  and  C_51
REMARK   21  A    between atoms: N_50  and  C_52
REMARK   22  A    between atoms: C_53  and  O_55
REMARK   23  A    between atoms: O_55  and  C_56
REMARK   24  A    between atoms: C_60  and  C_61
REMARK                            x       y       z     vdW  Elec       q    Type
REMARK                         _______ _______ _______ _____ _____    ______ ____
ROOT
ATOM     28  C   UNL     1       6.515  -3.104   0.000  0.00  0.00    +0.158 C 
ATOM     29  C   UNL     1       7.814  -2.354   0.000  0.00  0.00    +0.028 A 
ATOM     30  C   UNL     1       9.113  -3.104   0.000  0.00  0.00    +0.134 A 
ATOM     33  C   UNL     1      10.412  -2.354   0.000  0.00  0.00    +0.075 A 
ATOM     34  C   UNL     1      11.711  -3.104   0.000  0.00  0.00    +0.202 C 
ATOM     35  C   UNL     1      13.010  -2.354   0.000  0.00  0.00    +0.078 A 
ATOM     36  C   UNL     1      14.309  -3.104   0.000  0.00  0.00    +0.129 A 
ATOM     39  C   UNL     1      15.608  -2.354   0.000  0.00  0.00    +0.050 A 
ATOM     40  C   UNL     1      15.608  -0.855   0.000  0.00  0.00    +0.050 A 
ATOM     41  C   UNL     1      14.309  -0.105   0.000  0.00  0.00    +0.129 A 
ATOM     44  C   UNL     1      13.010  -0.855   0.000  0.00  0.00    +0.078 A 
ATOM     45  C   UNL     1      11.711  -0.105   0.000  0.00  0.00    +0.198 C 
ATOM     46  O   UNL     1      11.711   1.396   0.000  0.00  0.00    -0.286 OA
ATOM     47  O   UNL     1      11.711  -4.604   0.000  0.00  0.00    -0.286 OA
ATOM     48  C   UNL     1      10.412  -0.855   0.000  0.00  0.00    +0.037 A 
ATOM     49  C   UNL     1       9.113  -0.105   0.000  0.00  0.00    +0.017 A 
ATOM     50  C   UNL     1       7.814  -0.855   0.000  0.00  0.00    -0.021 A 
ATOM     51  C   UNL     1       6.515  -0.105   0.000  0.00  0.00    +0.160 C 
ATOM     56  C   UNL     1       5.216  -0.855   0.000  0.00  0.00    +0.085 C 
ATOM     61  C   UNL     1       5.216  -2.354   0.000  0.00  0.00    +0.072 C 
ENDROOT
BRANCH  30  31
ATOM     31  O   UNL     1       9.113  -4.604   0.000  0.00  0.00    -0.506 OA
ATOM     32  H   UNL     1       8.302  -5.073   0.000  0.00  0.00    +0.292 HD
ENDBRANCH  30  31
BRANCH  36  37
ATOM     37  O   UNL     1      14.309  -4.604   0.000  0.00  0.00    -0.506 OA
ATOM     38  H   UNL     1      13.498  -5.073   0.000  0.00  0.00    +0.292 HD
ENDBRANCH  36  37
BRANCH  41  42
ATOM     42  O   UNL     1      14.309   1.396   0.000  0.00  0.00    -0.506 OA
ATOM     43  H   UNL     1      15.121   1.864   0.000  0.00  0.00    +0.292 HD
ENDBRANCH  41  42
BRANCH  51  52
ATOM     52  C   UNL     1       6.515   1.396   0.000  0.00  0.00    +0.317 C 
ATOM     55  O   UNL     1       5.216   2.146   0.000  0.00  0.00    -0.250 OA
BRANCH  52  53
ATOM     53  O   UNL     1       7.814   2.146   0.000  0.00  0.00    -0.467 OA
ATOM     54  C   UNL     1       7.814   3.646   0.000  0.00  0.00    +0.280 C 
ENDBRANCH  52  53
ENDBRANCH  51  52
BRANCH  56  57
ATOM     57  C   UNL     1       4.703   0.555   0.000  0.00  0.00    +0.032 C 
ATOM     58  C   UNL     1       3.226   0.816   0.000  0.00  0.00    +0.007 C 
ENDBRANCH  56  57
BRANCH  56  59
ATOM     59  O   UNL     1       3.739  -1.115   0.000  0.00  0.00    -0.387 OA
ATOM     60  H   UNL     1       3.115  -0.372   0.000  0.00  0.00    +0.210 HD
ENDBRANCH  56  59
BRANCH  28  27
ATOM     27  O   UNL     1       5.551  -4.254   0.000  0.00  0.00    -0.343 OA
BRANCH  27  26
ATOM     20  C   UNL     1       7.090  -8.482   0.000  0.00  0.00    +0.167 C 
ATOM     21  C   UNL     1       8.054  -7.333   0.000  0.00  0.00    +0.092 C 
ATOM     25  C   UNL     1       7.541  -5.924   0.000  0.00  0.00    +0.083 C 
ATOM     26  C   UNL     1       6.064  -5.663   0.000  0.00  0.00    +0.253 C 
ATOM     62  O   UNL     1       5.100  -6.812   0.000  0.00  0.00    -0.346 OA
ATOM     63  C   UNL     1       5.613  -8.222   0.000  0.00  0.00    +0.149 C 
ATOM     64  C   UNL     1       6.577  -7.073   0.000  0.00  0.00    +0.041 C 
BRANCH  21  22
ATOM     22  N   UNL     1       9.531  -7.594   0.000  0.00  0.00    -0.303 NA
ATOM     23  C   UNL     1      10.496  -6.444   0.000  0.00  0.00    +0.105 C 
ATOM     24  C   UNL     1      10.044  -9.003   0.000  0.00  0.00    +0.105 C 
ENDBRANCH  21  22
BRANCH  20  19
ATOM     19  O   UNL     1       7.603  -9.892   0.000  0.00  0.00    -0.344 OA
BRANCH  19  17
ATOM     13  C   UNL     1       4.711 -13.339   0.000  0.00  0.00    +0.178 C 
ATOM     14  C   UNL     1       6.188 -13.599   0.000  0.00  0.00    +0.150 C 
ATOM     15  C   UNL     1       5.675 -12.190   0.000  0.00  0.00    +0.041 C 
ATOM     16  O   UNL     1       7.152 -12.450   0.000  0.00  0.00    -0.346 OA
ATOM     17  C   UNL     1       6.639 -11.041   0.000  0.00  0.00    +0.254 C 
ATOM     18  C   UNL     1       5.162 -10.780   0.000  0.00  0.00    +0.095 C 
ATOM     65  C   UNL     1       4.197 -11.929   0.000  0.00  0.00    +0.151 C 
BRANCH  65  66
ATOM     66  O   UNL     1       2.720 -11.669   0.000  0.00  0.00    -0.389 OA
ATOM     67  H   UNL     1       2.389 -10.757   0.000  0.00  0.00    +0.210 HD
ENDBRANCH  65  66
BRANCH  13  12
ATOM     12  O   UNL     1       3.746 -14.488   0.000  0.00  0.00    -0.343 OA
BRANCH  12  11
ATOM      1  O   UNL     1       1.305 -15.377   0.000  0.00  0.00    -0.346 OA
ATOM      2  C   UNL     1      -0.172 -15.116   0.000  0.00  0.00    +0.149 C 
ATOM      3  C   UNL     1       0.792 -13.967   0.000  0.00  0.00    +0.041 C 
ATOM      4  C   UNL     1      -0.685 -13.707   0.000  0.00  0.00    +0.172 C 
ATOM      7  C   UNL     1       0.279 -12.557   0.000  0.00  0.00    +0.150 C 
ATOM     10  C   UNL     1       1.756 -12.818   0.000  0.00  0.00    +0.095 C 
ATOM     11  C   UNL     1       2.269 -14.227   0.000  0.00  0.00    +0.254 C 
BRANCH   4   5
ATOM      5  O   UNL     1      -2.163 -13.446   0.000  0.00  0.00    -0.387 OA
ATOM      6  H   UNL     1      -2.494 -12.535   0.000  0.00  0.00    +0.210 HD
ENDBRANCH   4   5
BRANCH   7   8
ATOM      8  O   UNL     1      -0.234 -11.148   0.000  0.00  0.00    -0.389 OA
ATOM      9  H   UNL     1       0.389 -10.405   0.000  0.00  0.00    +0.210 HD
ENDBRANCH   7   8
ENDBRANCH  12  11
ENDBRANCH  13  12
ENDBRANCH  19  17
ENDBRANCH  20  19
ENDBRANCH  27  26
ENDBRANCH  28  27
TORSDOF 17