REMARK  Name = 256927
REMARK  10 active torsions:
REMARK  status: ('A' for Active; 'I' for Inactive)
REMARK    1  A    between atoms: N_1  and  PT_2
REMARK    2  A    between atoms: N_1  and  C_3
REMARK    3  A    between atoms: PT_2  and  N_4
REMARK    4  A    between atoms: PT_2  and  O_7
REMARK    5  A    between atoms: PT_2  and  O_8
REMARK    6  A    between atoms: C_3  and  C_9
REMARK    7  A    between atoms: C_3  and  C_10
REMARK    8  A    between atoms: N_4  and  C_11
REMARK    9  A    between atoms: C_11  and  C_12
REMARK   10  A    between atoms: C_11  and  C_13
REMARK                            x       y       z     vdW  Elec       q    Type
REMARK                         _______ _______ _______ _____ _____    ______ ____
ROOT
ATOM      6 PT   UNL     1      -2.223  -5.149   0.000  0.00  0.00    +0.000 Pt
ATOM     11 CL   UNL     1      -3.522  -5.899   0.000  0.00  0.00    +0.000 Cl
ATOM     12 CL   UNL     1      -0.924  -5.899   0.000  0.00  0.00    +0.000 Cl
ENDROOT
BRANCH   6   1
ATOM      1  N   UNL     1      -2.223  -6.649   0.000  0.00  0.00    +0.000 NA
ATOM      2  H   UNL     1      -0.924  -7.399   0.000  0.00  0.00    +0.000 HD
BRANCH   1   3
ATOM      3  C   UNL     1      -3.522  -7.399   0.000  0.00  0.00    +0.000 C 
ATOM      4  C   UNL     1      -4.821  -6.649   0.000  0.00  0.00    +0.000 C 
ATOM      5  C   UNL     1      -3.522  -8.899   0.000  0.00  0.00    +0.000 C 
ENDBRANCH   1   3
ENDBRANCH   6   1
BRANCH   6   7
ATOM      7  O   UNL     1      -3.522  -4.399   0.000  0.00  0.00    +0.000 OA
ATOM      8  H   UNL     1      -4.821  -5.149   0.000  0.00  0.00    +0.000 HD
ENDBRANCH   6   7
BRANCH   6   9
ATOM      9  O   UNL     1      -2.223  -3.650   0.000  0.00  0.00    +0.000 OA
ATOM     10  H   UNL     1      -3.522  -2.900   0.000  0.00  0.00    +0.000 HD
ENDBRANCH   6   9
BRANCH   6  13
ATOM     13  N   UNL     1      -0.924  -4.399   0.000  0.00  0.00    +0.000 NA
ATOM     14  H   UNL     1      -0.924  -2.900   0.000  0.00  0.00    +0.000 HD
BRANCH  13  15
ATOM     15  C   UNL     1       0.375  -5.149   0.000  0.00  0.00    +0.000 C 
ATOM     16  C   UNL     1       0.375  -6.649   0.000  0.00  0.00    +0.000 C 
ATOM     17  C   UNL     1       1.674  -4.399   0.000  0.00  0.00    +0.000 C 
ENDBRANCH  13  15
ENDBRANCH   6  13
TORSDOF 6