REMARK  Name = 282880
REMARK  26 active torsions:
REMARK  status: ('A' for Active; 'I' for Inactive)
REMARK    1  A    between atoms: O_1  and  P_2
REMARK    2  A    between atoms: O_1  and  C_7
REMARK    3  A    between atoms: P_2  and  O_5
REMARK    4  A    between atoms: O_5  and  C_25
REMARK    5  A    between atoms: N_6  and  C_26
REMARK    6  A    between atoms: N_6  and  C_27
REMARK    7  A    between atoms: N_6  and  C_28
REMARK    8  A    between atoms: N_6  and  C_29
REMARK    9  A    between atoms: C_7  and  C_8
REMARK   10  A    between atoms: C_8  and  C_9
REMARK   11  A    between atoms: C_9  and  C_10
REMARK   12  A    between atoms: C_10  and  C_11
REMARK   13  A    between atoms: C_11  and  C_12
REMARK   14  A    between atoms: C_12  and  C_13
REMARK   15  A    between atoms: C_13  and  C_14
REMARK   16  A    between atoms: C_14  and  C_15
REMARK   17  A    between atoms: C_15  and  C_16
REMARK   18  A    between atoms: C_16  and  C_17
REMARK   19  A    between atoms: C_17  and  C_18
REMARK   20  A    between atoms: C_18  and  C_19
REMARK   21  A    between atoms: C_19  and  C_20
REMARK   22  A    between atoms: C_20  and  C_21
REMARK   23  A    between atoms: C_21  and  C_22
REMARK   24  A    between atoms: C_22  and  C_23
REMARK   25  A    between atoms: C_23  and  C_24
REMARK   26  A    between atoms: C_25  and  C_26
REMARK                            x       y       z     vdW  Elec       q    Type
REMARK                         _______ _______ _______ _____ _____    ______ ____
ROOT
ATOM      5  C   UNL     1      -9.449  -1.473   0.000  0.00  0.00    +0.000 C 
ENDROOT
BRANCH   5   4
ATOM      4  C   UNL     1      -8.699  -2.772   0.000  0.00  0.00    +0.002 C 
BRANCH   4   3
ATOM      3  C   UNL     1      -7.199  -2.772   0.000  0.00  0.00    +0.028 C 
BRANCH   3   2
ATOM      2  C   UNL     1      -6.449  -4.071   0.000  0.00  0.00    +0.168 C 
BRANCH   2   1
ATOM      1  O   UNL     1      -4.949  -4.071   0.000  0.00  0.00    -0.327 OA
BRANCH   1  20
ATOM     20  P   UNL     1      -4.199  -2.772   0.000  0.00  0.00    +0.213 P 
ATOM     21  O   UNL     1      -2.900  -3.522   0.000  0.00  0.00    -0.437 OA
ATOM     29  O   UNL     1      -5.498  -2.022   0.000  0.00  0.00    -0.517 OA
BRANCH  20  22
ATOM     22  O   UNL     1      -3.449  -1.473   0.000  0.00  0.00    -0.322 OA
BRANCH  22  23
ATOM     23  C   UNL     1      -4.199  -0.174   0.000  0.00  0.00    +0.218 C 
BRANCH  23  24
ATOM     24  C   UNL     1      -5.699  -0.174   0.000  0.00  0.00    +0.161 C 
BRANCH  24  25
ATOM     25  N   UNL     1      -6.449   1.125   0.000  0.00  0.00    +0.239 N 
ATOM     26  C   UNL     1      -7.199   2.424   0.000  0.00  0.00    +0.192 C 
ATOM     27  C   UNL     1      -5.699   2.424   0.000  0.00  0.00    +0.192 C 
ATOM     28  C   UNL     1      -7.949   1.125   0.000  0.00  0.00    +0.192 C 
ENDBRANCH  24  25
ENDBRANCH  23  24
ENDBRANCH  22  23
ENDBRANCH  20  22
ENDBRANCH   1  20
ENDBRANCH   2   1
ENDBRANCH   3   2
ENDBRANCH   4   3
ENDBRANCH   5   4
BRANCH   5   6
ATOM      6  C   UNL     1     -10.949  -1.473   0.000  0.00  0.00    +0.000 C 
BRANCH   6   7
ATOM      7  C   UNL     1     -11.699  -0.174   0.000  0.00  0.00    +0.000 C 
BRANCH   7   8
ATOM      8  C   UNL     1     -13.199  -0.174   0.000  0.00  0.00    -0.000 C 
BRANCH   8   9
ATOM      9  C   UNL     1     -13.949  -1.473   0.000  0.00  0.00    -0.000 C 
BRANCH   9  10
ATOM     10  C   UNL     1     -15.449  -1.473   0.000  0.00  0.00    -0.000 C 
BRANCH  10  11
ATOM     11  C   UNL     1     -16.199  -2.772   0.000  0.00  0.00    -0.000 C 
BRANCH  11  12
ATOM     12  C   UNL     1     -17.699  -2.772   0.000  0.00  0.00    -0.000 C 
BRANCH  12  13
ATOM     13  C   UNL     1     -18.449  -1.473   0.000  0.00  0.00    -0.000 C 
BRANCH  13  14
ATOM     14  C   UNL     1     -19.949  -1.473   0.000  0.00  0.00    -0.000 C 
BRANCH  14  15
ATOM     15  C   UNL     1     -20.699  -0.174   0.000  0.00  0.00    -0.000 C 
BRANCH  15  16
ATOM     16  C   UNL     1     -22.199  -0.174   0.000  0.00  0.00    -0.000 C 
BRANCH  16  17
ATOM     17  C   UNL     1     -22.949  -1.473   0.000  0.00  0.00    -0.000 C 
BRANCH  17  18
ATOM     18  C   UNL     1     -24.449  -1.473   0.000  0.00  0.00    -0.003 C 
ATOM     19  C   UNL     1     -25.199  -2.772   0.000  0.00  0.00    +0.004 C 
ENDBRANCH  17  18
ENDBRANCH  16  17
ENDBRANCH  15  16
ENDBRANCH  14  15
ENDBRANCH  13  14
ENDBRANCH  12  13
ENDBRANCH  11  12
ENDBRANCH  10  11
ENDBRANCH   9  10
ENDBRANCH   8   9
ENDBRANCH   7   8
ENDBRANCH   6   7
ENDBRANCH   5   6
TORSDOF 22