REMARK  Name = 26045
REMARK  0 active torsions:
REMARK  status: ('A' for Active; 'I' for Inactive)
REMARK                            x       y       z     vdW  Elec       q    Type
REMARK                         _______ _______ _______ _____ _____    ______ ____
ROOT
ATOM      1 CL   UNL     1      -8.455  -5.250   0.000  0.00  0.00    -0.083 Cl
ATOM      2  C   UNL     1      -7.156  -4.500   0.000  0.00  0.00    +0.043 A 
ATOM      3  C   UNL     1      -5.857  -5.250   0.000  0.00  0.00    +0.033 A 
ATOM      4  C   UNL     1      -4.558  -4.500   0.000  0.00  0.00    +0.051 A 
ATOM      5  C   UNL     1      -3.132  -4.963   0.000  0.00  0.00    +0.249 C 
ATOM      6  C   UNL     1      -2.250  -3.750   0.000  0.00  0.00    +0.289 C 
ATOM      7  O   UNL     1      -0.750  -3.750   0.000  0.00  0.00    -0.266 OA
ATOM      8  N   UNL     1      -3.132  -2.537   0.000  0.00  0.00    -0.277 N 
ATOM      9  H   UNL     1      -2.668  -1.110   0.000  0.00  0.00    +0.155 HD
ATOM     10  O   UNL     1      -2.668  -6.390   0.000  0.00  0.00    -0.282 OA
ATOM     11  C   UNL     1      -4.558  -3.000   0.000  0.00  0.00    +0.063 A 
ATOM     12  C   UNL     1      -5.857  -2.250   0.000  0.00  0.00    +0.064 A 
ATOM     13 CL   UNL     1      -5.857  -0.750   0.000  0.00  0.00    -0.082 Cl
ATOM     14  C   UNL     1      -7.156  -3.000   0.000  0.00  0.00    +0.042 A 
ENDROOT
TORSDOF 0