REMARK  Name = 281613
REMARK  16 active torsions:
REMARK  status: ('A' for Active; 'I' for Inactive)
REMARK    1  A    between atoms: O_1  and  S_30
REMARK    2  A    between atoms: O_1  and  C_37
REMARK    3  A    between atoms: O_2  and  S_34
REMARK    4  A    between atoms: O_2  and  C_39
REMARK    5  A    between atoms: N_3  and  C_26
REMARK    6  A    between atoms: N_3  and  C_38
REMARK    7  A    between atoms: N_3  and  C_40
REMARK    8  A    between atoms: N_4  and  C_11
REMARK    9  A    between atoms: C_10  and  C_13
REMARK   10  A    between atoms: C_17  and  C_19
REMARK   11  A    between atoms: C_25  and  C_42
REMARK   12  A    between atoms: C_27  and  C_41
REMARK   13  A    between atoms: C_29  and  S_30
REMARK   14  A    between atoms: C_33  and  S_34
REMARK   15  A    between atoms: C_37  and  C_38
REMARK   16  A    between atoms: C_39  and  C_40
REMARK                            x       y       z     vdW  Elec       q    Type
REMARK                         _______ _______ _______ _____ _____    ______ ____
ROOT
ATOM     12  C   UNL     1      -6.870  -0.101   0.000  0.00  0.00    +0.030 A 
ATOM     13  C   UNL     1      -5.571  -0.851   0.000  0.00  0.00    +0.027 A 
ATOM     14  C   UNL     1      -4.272  -0.101   0.000  0.00  0.00    -0.040 A 
ATOM     15  C   UNL     1      -2.973  -0.851   0.000  0.00  0.00    +0.044 C 
ATOM     16  C   UNL     1      -4.272   1.400   0.000  0.00  0.00    -0.004 A 
ATOM     37  C   UNL     1      -5.571   2.150   0.000  0.00  0.00    +0.011 A 
ATOM     38  C   UNL     1      -6.870   1.400   0.000  0.00  0.00    +0.024 A 
ENDROOT
BRANCH  16  17
ATOM     17  C   UNL     1      -2.973   2.150   0.000  0.00  0.00    +0.119 C 
ATOM     18  N   UNL     1      -2.973   3.650   0.000  0.00  0.00    -0.255 NA
BRANCH  18  19
ATOM     19  C   UNL     1      -1.674   4.399   0.000  0.00  0.00    +0.065 A 
ATOM     20  C   UNL     1      -0.375   3.650   0.000  0.00  0.00    +0.048 A 
ATOM     21  C   UNL     1       0.924   4.399   0.000  0.00  0.00    +0.052 A 
ATOM     22  C   UNL     1       0.924   5.899   0.000  0.00  0.00    +0.019 A 
ATOM     34  C   UNL     1      -0.375   6.649   0.000  0.00  0.00    +0.013 A 
ATOM     35 CL   UNL     1       2.223   3.650   0.000  0.00  0.00    -0.083 Cl
ATOM     36  C   UNL     1      -1.674   5.899   0.000  0.00  0.00    +0.028 A 
BRANCH  22  23
ATOM     23  C   UNL     1       2.223   6.649   0.000  0.00  0.00    +0.080 A 
ATOM     24  C   UNL     1       3.593   6.039   0.000  0.00  0.00    +0.075 A 
ATOM     25  S   UNL     1       4.597   7.154   0.000  0.00  0.00    -0.075 S 
ATOM     26  C   UNL     1       3.847   8.453   0.000  0.00  0.00    +0.109 A 
ATOM     33  N   UNL     1       2.380   8.141   0.000  0.00  0.00    -0.239 NA
BRANCH  26  27
ATOM     27  C   UNL     1       4.457   9.823   0.000  0.00  0.00    +0.007 A 
ATOM     28  C   UNL     1       5.949   9.980   0.000  0.00  0.00    +0.010 A 
ATOM     29  C   UNL     1       6.559  11.351   0.000  0.00  0.00    +0.001 A 
ATOM     30  C   UNL     1       5.677  12.564   0.000  0.00  0.00    +0.000 A 
ATOM     31  C   UNL     1       4.186  12.407   0.000  0.00  0.00    +0.001 A 
ATOM     32  C   UNL     1       3.575  11.037   0.000  0.00  0.00    +0.010 A 
ENDBRANCH  26  27
ENDBRANCH  22  23
ENDBRANCH  18  19
ENDBRANCH  16  17
BRANCH  12   4
ATOM      4  N   UNL     1      -8.169  -0.851   0.000  0.00  0.00    -0.325 N 
BRANCH   4   3
ATOM      3  C   UNL     1      -9.468  -0.101   0.000  0.00  0.00    +0.135 C 
BRANCH   3   2
ATOM      2  C   UNL     1     -10.767  -0.851   0.000  0.00  0.00    +0.212 C 
BRANCH   2   1
ATOM      1  O   UNL     1     -12.066  -0.101   0.000  0.00  0.00    -0.237 OA
BRANCH   1  39
ATOM     39  S   UNL     1     -12.066   1.400   0.000  0.00  0.00    +0.079 S 
ATOM     40  O   UNL     1     -13.566   1.400   0.000  0.00  0.00    -0.147 OA
ATOM     41  O   UNL     1     -10.566   1.400   0.000  0.00  0.00    -0.147 OA
ATOM     42  C   UNL     1     -12.066   2.900   0.000  0.00  0.00    +0.228 C 
ENDBRANCH   1  39
ENDBRANCH   2   1
ENDBRANCH   3   2
ENDBRANCH   4   3
BRANCH   4   5
ATOM      5  C   UNL     1      -8.169  -2.350   0.000  0.00  0.00    +0.135 C 
BRANCH   5   6
ATOM      6  C   UNL     1      -9.468  -3.100   0.000  0.00  0.00    +0.212 C 
BRANCH   6   7
ATOM      7  O   UNL     1     -10.617  -2.136   0.000  0.00  0.00    -0.237 OA
BRANCH   7   8
ATOM      8  S   UNL     1     -12.027  -2.649   0.000  0.00  0.00    +0.079 S 
ATOM      9  O   UNL     1     -12.540  -1.240   0.000  0.00  0.00    -0.147 OA
ATOM     10  O   UNL     1     -13.436  -3.162   0.000  0.00  0.00    -0.147 OA
ATOM     11  C   UNL     1     -11.514  -4.059   0.000  0.00  0.00    +0.228 C 
ENDBRANCH   7   8
ENDBRANCH   6   7
ENDBRANCH   5   6
ENDBRANCH   4   5
ENDBRANCH  12   4
TORSDOF 13