REMARK  Name = 268251
REMARK  22 active torsions:
REMARK  status: ('A' for Active; 'I' for Inactive)
REMARK    1  A    between atoms: C_4  and  N_35
REMARK    2  A    between atoms: C_5  and  C_32
REMARK    3  A    between atoms: C_6  and  O_33
REMARK    4  A    between atoms: C_7  and  O_41
REMARK    5  A    between atoms: C_8  and  N_31
REMARK    6  A    between atoms: C_13  and  C_14
REMARK    7  A    between atoms: C_13  and  C_36
REMARK    8  A    between atoms: C_13  and  C_37
REMARK    9  A    between atoms: C_14  and  C_15
REMARK   10  A    between atoms: C_15  and  C_16
REMARK   11  A    between atoms: C_16  and  C_17
REMARK   12  A    between atoms: C_17  and  C_18
REMARK   13  A    between atoms: C_18  and  C_19
REMARK   14  A    between atoms: C_19  and  C_20
REMARK   15  A    between atoms: C_20  and  C_21
REMARK   16  A    between atoms: C_21  and  C_22
REMARK   17  A    between atoms: C_22  and  C_23
REMARK   18  A    between atoms: C_23  and  C_24
REMARK   19  A    between atoms: C_24  and  C_25
REMARK   20  A    between atoms: C_25  and  C_26
REMARK   21  A    between atoms: C_28  and  C_29
REMARK   22  A    between atoms: C_28  and  N_34
REMARK                            x       y       z     vdW  Elec       q    Type
REMARK                         _______ _______ _______ _____ _____    ______ ____
ROOT
ATOM     21  N   UNL     1       8.544 -12.000   0.000  0.00  0.00    -0.306 N 
ATOM     22  H   UNL     1       9.397 -12.492   0.000  0.00  0.00    +0.149 HD
ATOM     23  C   UNL     1       8.544 -10.500   0.000  0.00  0.00    +0.231 C 
ATOM     24  O   UNL     1       9.843  -9.750   0.000  0.00  0.00    -0.274 OA
ENDROOT
BRANCH  21  20
ATOM     13  C   UNL     1       4.647 -14.250   0.000  0.00  0.00    +0.236 C 
ATOM     14  C   UNL     1       4.647 -12.750   0.000  0.00  0.00    +0.192 C 
ATOM     17  C   UNL     1       5.946 -12.000   0.000  0.00  0.00    +0.170 C 
ATOM     20  C   UNL     1       7.245 -12.750   0.000  0.00  0.00    +0.133 C 
ATOM     45  C   UNL     1       7.245 -14.250   0.000  0.00  0.00    +0.140 C 
ATOM     46  C   UNL     1       5.946 -13.500   0.000  0.00  0.00    +0.040 C 
ATOM     47  O   UNL     1       5.946 -15.000   0.000  0.00  0.00    -0.351 OA
BRANCH  13  11
ATOM      1  N   UNL     1       2.049 -17.250   0.000  0.00  0.00    -0.219 NA
ATOM      2  C   UNL     1       2.049 -18.750   0.000  0.00  0.00    +0.225 A 
ATOM      3  N   UNL     1       3.348 -19.500   0.000  0.00  0.00    -0.214 NA
ATOM      4  C   UNL     1       4.647 -18.750   0.000  0.00  0.00    +0.183 A 
ATOM      5  N   UNL     1       6.074 -19.214   0.000  0.00  0.00    -0.216 NA
ATOM      6  C   UNL     1       6.955 -18.000   0.000  0.00  0.00    +0.199 A 
ATOM      7  N   UNL     1       6.074 -16.787   0.000  0.00  0.00    -0.340 N 
ATOM      8  H   UNL     1       6.378 -15.850   0.000  0.00  0.00    +0.167 HD
ATOM      9  C   UNL     1       4.647 -17.250   0.000  0.00  0.00    +0.125 A 
ATOM     10  C   UNL     1       3.348 -16.500   0.000  0.00  0.00    +0.150 A 
ATOM     11  N   UNL     1       3.348 -15.000   0.000  0.00  0.00    -0.300 N 
ATOM     12  H   UNL     1       2.495 -14.508   0.000  0.00  0.00    +0.150 HD
ENDBRANCH  13  11
BRANCH  14  15
ATOM     15  O   UNL     1       5.946 -13.500   0.000  0.00  0.00    -0.385 OA
ATOM     16  H   UNL     1       5.946 -14.470   0.000  0.00  0.00    +0.210 HD
ENDBRANCH  14  15
BRANCH  17  18
ATOM     18  O   UNL     1       5.946 -10.500   0.000  0.00  0.00    -0.387 OA
ATOM     19  H   UNL     1       6.786 -10.015   0.000  0.00  0.00    +0.210 HD
ENDBRANCH  17  18
ENDBRANCH  21  20
BRANCH  23  25
ATOM     25  C   UNL     1       7.245  -9.750   0.000  0.00  0.00    +0.200 C 
BRANCH  25  26
ATOM     26  N   UNL     1       7.245  -8.250   0.000  0.00  0.00    -0.307 N 
ATOM     27  H   UNL     1       8.098  -7.758   0.000  0.00  0.00    +0.149 HD
ATOM     28  C   UNL     1       5.946  -7.500   0.000  0.00  0.00    +0.213 C 
ATOM     29  O   UNL     1       4.647  -8.250   0.000  0.00  0.00    -0.276 OA
BRANCH  28  30
ATOM     30  C   UNL     1       5.946  -6.000   0.000  0.00  0.00    +0.096 C 
BRANCH  30  31
ATOM     31  C   UNL     1       4.647  -5.250   0.000  0.00  0.00    +0.009 C 
BRANCH  31  32
ATOM     32  C   UNL     1       4.647  -3.750   0.000  0.00  0.00    +0.000 C 
BRANCH  32  33
ATOM     33  C   UNL     1       3.348  -3.000   0.000  0.00  0.00    +0.000 C 
BRANCH  33  34
ATOM     34  C   UNL     1       3.348  -1.500   0.000  0.00  0.00    +0.000 C 
BRANCH  34  35
ATOM     35  C   UNL     1       2.049  -0.750   0.000  0.00  0.00    +0.000 C 
BRANCH  35  36
ATOM     36  C   UNL     1       0.750  -1.500   0.000  0.00  0.00    -0.000 C 
BRANCH  36  37
ATOM     37  C   UNL     1       0.750  -3.000   0.000  0.00  0.00    +0.000 C 
BRANCH  37  38
ATOM     38  C   UNL     1       2.049  -3.750   0.000  0.00  0.00    +0.000 C 
BRANCH  38  39
ATOM     39  C   UNL     1       2.049  -5.250   0.000  0.00  0.00    +0.000 C 
BRANCH  39  40
ATOM     40  C   UNL     1       3.348  -6.000   0.000  0.00  0.00    +0.000 C 
BRANCH  40  41
ATOM     41  C   UNL     1       3.348  -7.500   0.000  0.00  0.00    +0.003 C 
BRANCH  41  42
ATOM     42  C   UNL     1       2.049  -8.250   0.000  0.00  0.00    -0.017 C 
ATOM     43  C   UNL     1       0.750  -7.500   0.000  0.00  0.00    +0.007 C 
ATOM     44  C   UNL     1       2.049  -9.750   0.000  0.00  0.00    +0.007 C 
ENDBRANCH  41  42
ENDBRANCH  40  41
ENDBRANCH  39  40
ENDBRANCH  38  39
ENDBRANCH  37  38
ENDBRANCH  36  37
ENDBRANCH  35  36
ENDBRANCH  34  35
ENDBRANCH  33  34
ENDBRANCH  32  33
ENDBRANCH  31  32
ENDBRANCH  30  31
ENDBRANCH  28  30
ENDBRANCH  25  26
ENDBRANCH  23  25
TORSDOF 19