REMARK  Name = 292663
REMARK  13 active torsions:
REMARK  status: ('A' for Active; 'I' for Inactive)
REMARK    1  A    between atoms: O_1  and  C_2
REMARK    2  A    between atoms: O_1  and  C_3
REMARK    3  A    between atoms: C_2  and  C_4
REMARK    4  A    between atoms: C_4  and  C_8
REMARK    5  A    between atoms: C_4  and  C_9
REMARK    6  A    between atoms: C_8  and  C_13
REMARK    7  A    between atoms: C_12  and  C_18
REMARK    8  A    between atoms: C_19  and  O_22
REMARK    9  A    between atoms: C_20  and  C_24
REMARK   10  A    between atoms: C_24  and  O_26
REMARK   11  A    between atoms: C_25  and  O_27
REMARK   12  A    between atoms: O_27  and  C_28
REMARK   13  A    between atoms: C_28  and  C_29
REMARK                            x       y       z     vdW  Elec       q    Type
REMARK                         _______ _______ _______ _____ _____    ______ ____
ROOT
ATOM      2  C   UNL     1       7.613   1.417   0.000  0.00  0.00    +0.211 C 
ATOM      3  C   UNL     1       8.912   0.667   0.000  0.00  0.00    +0.019 C 
ATOM      4  C   UNL     1       8.912  -0.833   0.000  0.00  0.00    -0.045 C 
ATOM      5  C   UNL     1      10.211  -1.583   0.000  0.00  0.00    +0.144 C 
ATOM      6  C   UNL     1      11.510  -0.833   0.000  0.00  0.00    +0.085 C 
ATOM      7  C   UNL     1      11.510   0.667   0.000  0.00  0.00    +0.207 C 
ATOM     12  C   UNL     1      10.211   1.417   0.000  0.00  0.00    -0.005 C 
ATOM     16  C   UNL     1      10.211   2.917   0.000  0.00  0.00    +0.023 C 
ATOM     17  C   UNL     1       8.912   3.667   0.000  0.00  0.00    +0.211 C 
ATOM     18  O   UNL     1       8.600   5.134   0.000  0.00  0.00    -0.453 OA
ATOM     19  C   UNL     1       7.108   5.291   0.000  0.00  0.00    +0.336 C 
ATOM     20  O   UNL     1       6.358   6.590   0.000  0.00  0.00    -0.245 OA
ATOM     21  C   UNL     1       6.498   3.920   0.000  0.00  0.00    +0.040 C 
ATOM     22  C   UNL     1       5.031   3.608   0.000  0.00  0.00    +0.020 C 
ATOM     25  C   UNL     1       7.613  -1.583   0.000  0.00  0.00    +0.041 C 
ATOM     26  C   UNL     1       7.613   2.917   0.000  0.00  0.00    +0.115 C 
ENDROOT
BRANCH   5  23
ATOM     23  O   UNL     1      10.211  -3.083   0.000  0.00  0.00    -0.387 OA
ATOM     24  H   UNL     1      11.510  -3.833   0.000  0.00  0.00    +0.210 HD
ENDBRANCH   5  23
BRANCH   2   1
ATOM      1  O   UNL     1       6.314   0.667   0.000  0.00  0.00    -0.456 OA
BRANCH   1  27
ATOM     27  C   UNL     1       4.904   1.180   0.000  0.00  0.00    +0.310 C 
ATOM     28  O   UNL     1       4.644   2.657   0.000  0.00  0.00    -0.251 OA
BRANCH  27  29
ATOM     29  C   UNL     1       3.755   0.215   0.000  0.00  0.00    +0.094 C 
ATOM     30  C   UNL     1       4.016  -1.262   0.000  0.00  0.00    +0.019 C 
BRANCH  29  31
ATOM     31  C   UNL     1       2.346   0.729   0.000  0.00  0.00    +0.011 C 
ATOM     32  C   UNL     1       1.197  -0.236   0.000  0.00  0.00    +0.004 C 
ENDBRANCH  29  31
ENDBRANCH  27  29
ENDBRANCH   1  27
ENDBRANCH   2   1
BRANCH   7   8
ATOM      8  O   UNL     1      12.809   1.417   0.000  0.00  0.00    -0.457 OA
BRANCH   8   9
ATOM      9  C   UNL     1      13.958   0.452   0.000  0.00  0.00    +0.305 C 
ATOM     10  O   UNL     1      15.368   0.966   0.000  0.00  0.00    -0.251 OA
ATOM     11  C   UNL     1      13.698  -1.025   0.000  0.00  0.00    +0.136 C 
ENDBRANCH   8   9
ENDBRANCH   7   8
BRANCH  12  13
ATOM     13  C   UNL     1       6.674  -0.625   0.000  0.00  0.00    +0.190 C 
BRANCH  13  14
ATOM     14  O   UNL     1       6.674  -2.125   0.000  0.00  0.00    -0.391 OA
ATOM     15  H   UNL     1       5.375  -2.875   0.000  0.00  0.00    +0.210 HD
ENDBRANCH  13  14
ENDBRANCH  12  13
TORSDOF 9