REMARK  Name = 257473
REMARK  4 active torsions:
REMARK  status: ('A' for Active; 'I' for Inactive)
REMARK    1  A    between atoms: C_18  and  C_22
REMARK    2  A    between atoms: C_19  and  C_22
REMARK    3  A    between atoms: C_20  and  C_22
REMARK    4  A    between atoms: C_22  and  N_24
REMARK                            x       y       z     vdW  Elec       q    Type
REMARK                         _______ _______ _______ _____ _____    ______ ____
ROOT
ATOM      5  C   UNL     1      -6.611  -4.558   0.000  0.00  0.00    +0.123 C 
ENDROOT
BRANCH   5  11
ATOM     11  C   UNL     1      -6.611  -7.292   0.000  0.00  0.00    +0.006 A 
ATOM     12  C   UNL     1      -7.910  -8.042   0.000  0.00  0.00    +0.047 A 
ATOM     13 CL   UNL     1      -9.209  -7.292   0.000  0.00  0.00    -0.083 Cl
ATOM     14  C   UNL     1      -7.910  -9.542   0.000  0.00  0.00    +0.020 A 
ATOM     15  C   UNL     1      -6.611 -10.292   0.000  0.00  0.00    +0.001 A 
ATOM     16  C   UNL     1      -5.312  -9.542   0.000  0.00  0.00    +0.000 A 
ATOM     17  C   UNL     1      -5.312  -8.042   0.000  0.00  0.00    +0.008 A 
ENDBRANCH   5  11
BRANCH   5   4
ATOM      1  C   UNL     1      -2.111  -4.558   0.000  0.00  0.00    +0.000 A 
ATOM      2  C   UNL     1      -2.861  -5.857   0.000  0.00  0.00    +0.000 A 
ATOM      3  C   UNL     1      -4.361  -5.857   0.000  0.00  0.00    +0.006 A 
ATOM      4  C   UNL     1      -5.111  -4.558   0.000  0.00  0.00    -0.013 A 
ATOM     24  C   UNL     1      -4.361  -3.259   0.000  0.00  0.00    +0.006 A 
ATOM     25  C   UNL     1      -2.861  -3.259   0.000  0.00  0.00    +0.000 A 
ENDBRANCH   5   4
BRANCH   5  18
ATOM     18  C   UNL     1      -8.636  -4.558   0.000  0.00  0.00    -0.013 A 
ATOM     19  C   UNL     1      -9.386  -5.857   0.000  0.00  0.00    +0.006 A 
ATOM     20  C   UNL     1     -10.886  -5.857   0.000  0.00  0.00    +0.000 A 
ATOM     21  C   UNL     1     -11.636  -4.558   0.000  0.00  0.00    +0.000 A 
ATOM     22  C   UNL     1     -10.886  -3.259   0.000  0.00  0.00    +0.000 A 
ATOM     23  C   UNL     1      -9.386  -3.259   0.000  0.00  0.00    +0.006 A 
ENDBRANCH   5  18
BRANCH   5   6
ATOM      6  N   UNL     1      -6.611  -2.533   0.000  0.00  0.00    -0.319 N 
ATOM      7  C   UNL     1      -5.397  -1.652   0.000  0.00  0.00    +0.200 A 
ATOM      8  N   UNL     1      -5.861  -0.225   0.000  0.00  0.00    -0.244 NA
ATOM      9  C   UNL     1      -7.361  -0.225   0.000  0.00  0.00    +0.130 A 
ATOM     10  C   UNL     1      -7.824  -1.652   0.000  0.00  0.00    +0.108 A 
ENDBRANCH   5   6
TORSDOF 4