REMARK  Name = 26273
REMARK  8 active torsions:
REMARK  status: ('A' for Active; 'I' for Inactive)
REMARK    1  A    between atoms: N_5  and  C1*_11
REMARK    2  A    between atoms: C_6  and  S_15
REMARK    3  A    between atoms: C2*_12  and  O2*_26
REMARK    4  A    between atoms: C3*_13  and  O3*_25
REMARK    5  A    between atoms: C4*_14  and  C5*_24
REMARK    6  A    between atoms: S_15  and  C_16
REMARK    7  A    between atoms: C_16  and  C_17
REMARK    8  A    between atoms: O5*_23  and  C5*_24
REMARK                            x       y       z     vdW  Elec       q    Type
REMARK                         _______ _______ _______ _____ _____    ______ ____
ROOT
ATOM      1  N   UNL     1       7.284   2.116   0.000  0.00  0.00    -0.227 NA
ATOM      2  C   UNL     1       7.284   0.616   0.000  0.00  0.00    +0.224 A 
ATOM      3  N   UNL     1       8.583  -0.134   0.000  0.00  0.00    -0.216 NA
ATOM      4  C   UNL     1       9.882   0.616   0.000  0.00  0.00    +0.167 A 
ATOM      5  C   UNL     1       9.882   2.116   0.000  0.00  0.00    +0.140 A 
ATOM      6  N   UNL     1      11.309   2.579   0.000  0.00  0.00    -0.231 NA
ATOM      7  C   UNL     1      12.190   1.366   0.000  0.00  0.00    +0.203 A 
ATOM      8  N   UNL     1      11.309   0.153   0.000  0.00  0.00    -0.286 N 
ATOM     21  C   UNL     1       8.583   2.866   0.000  0.00  0.00    +0.128 A 
ENDROOT
BRANCH   8   9
ATOM      9  C1* UNL     1      11.772  -1.274   0.000  0.00  0.00    +0.253 C 
ATOM     10  C2* UNL     1      13.199  -1.738   0.000  0.00  0.00    +0.195 C 
ATOM     13  C3* UNL     1      13.199  -3.238   0.000  0.00  0.00    +0.178 C 
ATOM     16  C4* UNL     1      11.772  -3.701   0.000  0.00  0.00    +0.177 C 
ATOM     20  O4* UNL     1      10.890  -2.488   0.000  0.00  0.00    -0.346 OA
BRANCH  10  11
ATOM     11  O2* UNL     1      14.412  -0.856   0.000  0.00  0.00    -0.385 OA
ATOM     12  H2* UNL     1      15.298  -1.251   0.000  0.00  0.00    +0.210 HD
ENDBRANCH  10  11
BRANCH  13  14
ATOM     14  O3* UNL     1      14.412  -4.119   0.000  0.00  0.00    -0.386 OA
ATOM     15  H3* UNL     1      14.311  -5.084   0.000  0.00  0.00    +0.210 HD
ENDBRANCH  13  14
BRANCH  16  17
ATOM     17  C5* UNL     1      11.309  -5.128   0.000  0.00  0.00    +0.190 C 
BRANCH  17  18
ATOM     18  O5* UNL     1      12.312  -6.242   0.000  0.00  0.00    -0.392 OA
ATOM     19  H5* UNL     1      12.012  -7.165   0.000  0.00  0.00    +0.210 HD
ENDBRANCH  17  18
ENDBRANCH  16  17
ENDBRANCH   8   9
BRANCH  21  22
ATOM     22  S   UNL     1       8.583   4.366   0.000  0.00  0.00    -0.099 S 
BRANCH  22  23
ATOM     23  C   UNL     1       7.284   5.116   0.000  0.00  0.00    +0.111 C 
BRANCH  23  24
ATOM     24  C   UNL     1       5.985   4.366   0.000  0.00  0.00    -0.037 A 
ATOM     25  C   UNL     1       4.686   5.116   0.000  0.00  0.00    +0.004 A 
ATOM     26  C   UNL     1       3.387   4.366   0.000  0.00  0.00    +0.000 A 
ATOM     27  C   UNL     1       3.387   2.866   0.000  0.00  0.00    +0.000 A 
ATOM     28  C   UNL     1       4.686   2.116   0.000  0.00  0.00    +0.000 A 
ATOM     29  C   UNL     1       5.985   2.866   0.000  0.00  0.00    +0.004 A 
ENDBRANCH  23  24
ENDBRANCH  22  23
ENDBRANCH  21  22
TORSDOF 8