REMARK  Name = 290205
REMARK  11 active torsions:
REMARK  status: ('A' for Active; 'I' for Inactive)
REMARK    1  A    between atoms: C_1  and  C_30
REMARK    2  A    between atoms: C_2  and  C_31
REMARK    3  A    between atoms: C_16  and  C_18
REMARK    4  A    between atoms: C_16  and  N_33
REMARK    5  A    between atoms: C_17  and  C_19
REMARK    6  A    between atoms: C_17  and  N_33
REMARK    7  A    between atoms: C_20  and  C_21
REMARK    8  A    between atoms: C_20  and  C_29
REMARK    9  A    between atoms: C_22  and  N_33
REMARK   10  A    between atoms: C_24  and  O_36
REMARK   11  A    between atoms: C_29  and  O_36
REMARK                            x       y       z     vdW  Elec       q    Type
REMARK                         _______ _______ _______ _____ _____    ______ ____
ROOT
ATOM      1  C   UNL     1      16.321   4.562   0.000  0.00  0.00    +0.012 C 
ATOM      2  C   UNL     1      16.327   3.062   0.000  0.00  0.00    -0.026 C 
ATOM      3  C   UNL     1      17.623   3.817   0.000  0.00  0.00    -0.001 C 
ATOM      4  C   UNL     1      18.925   3.072   0.000  0.00  0.00    -0.002 C 
ATOM      5  C   UNL     1      20.221   3.826   0.000  0.00  0.00    +0.016 C 
ATOM      6  C   UNL     1      20.216   5.327   0.000  0.00  0.00    +0.035 C 
ATOM      7  N   UNL     1      21.512   6.081   0.000  0.00  0.00    -0.310 N 
ATOM      8  H   UNL     1      21.506   7.581   0.000  0.00  0.00    +0.149 HD
ATOM      9  C   UNL     1      22.814   5.336   0.000  0.00  0.00    +0.213 C 
ATOM     10  O   UNL     1      24.110   6.091   0.000  0.00  0.00    -0.276 OA
ATOM     11  C   UNL     1      22.819   3.836   0.000  0.00  0.00    +0.096 C 
ATOM     12  C   UNL     1      18.914   6.072   0.000  0.00  0.00    +0.026 C 
ATOM     13  C   UNL     1      20.210   6.827   0.000  0.00  0.00    +0.032 C 
ATOM     14  C   UNL     1      21.523   3.081   0.000  0.00  0.00    +0.015 C 
ATOM     15  C   UNL     1      18.931   1.572   0.000  0.00  0.00    +0.004 C 
ATOM     16  C   UNL     1      17.634   0.817   0.000  0.00  0.00    +0.004 C 
ATOM     17  C   UNL     1      17.618   5.317   0.000  0.00  0.00    +0.006 C 
ATOM     18  C   UNL     1      16.333   1.562   0.000  0.00  0.00    -0.001 C 
ATOM     19  C   UNL     1      15.037   0.807   0.000  0.00  0.00    +0.048 C 
ATOM     20  C   UNL     1      13.735   1.552   0.000  0.00  0.00    +0.177 C 
ATOM     38  C   UNL     1      13.729   3.052   0.000  0.00  0.00    +0.045 C 
ATOM     39  C   UNL     1      15.025   3.807   0.000  0.00  0.00    +0.011 C 
ENDROOT
BRANCH  20  21
ATOM     21  O   UNL     1      12.438   0.797   0.000  0.00  0.00    -0.461 OA
BRANCH  21  22
ATOM     22  C   UNL     1      11.137   1.542   0.000  0.00  0.00    +0.312 C 
ATOM     23  O   UNL     1      11.131   3.042   0.000  0.00  0.00    -0.250 OA
BRANCH  22  24
ATOM     24  C   UNL     1       9.840   0.787   0.000  0.00  0.00    +0.155 C 
BRANCH  24  25
ATOM     25  C   UNL     1       8.539   1.532   0.000  0.00  0.00    -0.037 A 
ATOM     26  C   UNL     1       7.242   0.777   0.000  0.00  0.00    +0.006 A 
ATOM     27  C   UNL     1       5.940   1.523   0.000  0.00  0.00    +0.023 A 
ATOM     28  C   UNL     1       5.935   3.023   0.000  0.00  0.00    +0.030 A 
ATOM     36  C   UNL     1       7.231   3.777   0.000  0.00  0.00    +0.023 A 
ATOM     37  C   UNL     1       8.533   3.032   0.000  0.00  0.00    +0.006 A 
BRANCH  28  29
ATOM     29  N   UNL     1       4.633   3.768   0.000  0.00  0.00    -0.328 N 
BRANCH  29  30
ATOM     30  C   UNL     1       4.627   5.268   0.000  0.00  0.00    +0.121 C 
BRANCH  30  31
ATOM     31  C   UNL     1       3.325   6.013   0.000  0.00  0.00    +0.127 C 
ATOM     32 CL   UNL     1       3.320   7.513   0.000  0.00  0.00    -0.124 Cl
ENDBRANCH  30  31
ENDBRANCH  29  30
BRANCH  29  33
ATOM     33  C   UNL     1       3.337   3.013   0.000  0.00  0.00    +0.121 C 
BRANCH  33  34
ATOM     34  C   UNL     1       2.035   3.758   0.000  0.00  0.00    +0.127 C 
ATOM     35 CL   UNL     1       0.739   3.003   0.000  0.00  0.00    -0.124 Cl
ENDBRANCH  33  34
ENDBRANCH  29  33
ENDBRANCH  28  29
ENDBRANCH  24  25
ENDBRANCH  22  24
ENDBRANCH  21  22
ENDBRANCH  20  21
TORSDOF 9