REMARK  Name = 267700
REMARK  11 active torsions:
REMARK  status: ('A' for Active; 'I' for Inactive)
REMARK    1  A    between atoms: O_2  and  C_19
REMARK    2  A    between atoms: O_2  and  C_20
REMARK    3  A    between atoms: O_3  and  C_22
REMARK    4  A    between atoms: O_3  and  C_26
REMARK    5  A    between atoms: C_6  and  C_19
REMARK    6  A    between atoms: C_10  and  C_22
REMARK    7  A    between atoms: C_12  and  C_13
REMARK    8  A    between atoms: N_23  and  C_24
REMARK    9  A    between atoms: C_24  and  C_25
REMARK   10  A    between atoms: N_28  and  C_29
REMARK   11  A    between atoms: C_29  and  C_30
REMARK                            x       y       z     vdW  Elec       q    Type
REMARK                         _______ _______ _______ _____ _____    ______ ____
ROOT
ATOM      1  N   UNL     1     -11.363  -4.522   0.000  0.00  0.00    -0.343 N 
ATOM      2  C   UNL     1     -10.481  -3.309   0.000  0.00  0.00    +0.056 A 
ATOM     11  C   UNL     1     -11.363  -2.095   0.000  0.00  0.00    +0.022 A 
ATOM     20  C   UNL     1     -12.789  -2.559   0.000  0.00  0.00    +0.017 A 
ATOM     29  C   UNL     1     -11.363  -6.022   0.000  0.00  0.00    +0.122 C 
ATOM     30  C   UNL     1     -12.789  -6.486   0.000  0.00  0.00    +0.028 C 
ATOM     31  C   UNL     1     -13.671  -5.272   0.000  0.00  0.00    +0.055 C 
ATOM     32  C   UNL     1     -12.789  -4.059   0.000  0.00  0.00    +0.026 A 
ENDROOT
BRANCH   2   3
ATOM      3  C   UNL     1      -8.981  -3.309   0.000  0.00  0.00    +0.000 A 
ATOM      4  C   UNL     1      -8.231  -4.608   0.000  0.00  0.00    +0.011 A 
ATOM      5  C   UNL     1      -6.731  -4.608   0.000  0.00  0.00    +0.022 A 
ATOM      6  C   UNL     1      -5.981  -3.309   0.000  0.00  0.00    +0.059 A 
ATOM      7  C   UNL     1      -6.731  -2.010   0.000  0.00  0.00    +0.060 A 
ATOM      8 CL   UNL     1      -5.981  -0.711   0.000  0.00  0.00    -0.082 Cl
ATOM      9 CL   UNL     1      -4.481  -3.309   0.000  0.00  0.00    -0.082 Cl
ATOM     10  C   UNL     1      -8.231  -2.010   0.000  0.00  0.00    +0.031 A 
ENDBRANCH   2   3
BRANCH  11  12
ATOM     12  C   UNL     1     -10.899  -0.669   0.000  0.00  0.00    +0.271 C 
BRANCH  12  13
ATOM     13  O   UNL     1      -9.432  -0.357   0.000  0.00  0.00    -0.446 OA
BRANCH  13  14
ATOM     14  C   UNL     1      -8.968   1.070   0.000  0.00  0.00    +0.401 C 
ATOM     15  N   UNL     1      -7.501   1.382   0.000  0.00  0.00    -0.281 N 
ATOM     16  H   UNL     1      -6.842   0.650   0.000  0.00  0.00    +0.152 HD
ATOM     19  O   UNL     1      -9.972   2.184   0.000  0.00  0.00    -0.226 OA
BRANCH  15  17
ATOM     17  C   UNL     1      -7.038   2.808   0.000  0.00  0.00    +0.104 C 
ATOM     18  C   UNL     1      -5.570   3.120   0.000  0.00  0.00    +0.024 C 
ENDBRANCH  15  17
ENDBRANCH  13  14
ENDBRANCH  12  13
ENDBRANCH  11  12
BRANCH  20  21
ATOM     21  C   UNL     1     -14.003  -1.677   0.000  0.00  0.00    +0.271 C 
BRANCH  21  22
ATOM     22  O   UNL     1     -13.846  -0.185   0.000  0.00  0.00    -0.446 OA
BRANCH  22  23
ATOM     23  C   UNL     1     -15.060   0.696   0.000  0.00  0.00    +0.401 C 
ATOM     24  N   UNL     1     -14.903   2.188   0.000  0.00  0.00    -0.281 N 
ATOM     25  H   UNL     1     -14.003   2.589   0.000  0.00  0.00    +0.152 HD
ATOM     28  O   UNL     1     -16.430   0.086   0.000  0.00  0.00    -0.226 OA
BRANCH  24  26
ATOM     26  C   UNL     1     -16.116   3.070   0.000  0.00  0.00    +0.104 C 
ATOM     27  C   UNL     1     -15.959   4.562   0.000  0.00  0.00    +0.024 C 
ENDBRANCH  24  26
ENDBRANCH  22  23
ENDBRANCH  21  22
ENDBRANCH  20  21
TORSDOF 9