REMARK  Name = 261726
REMARK  1 active torsions:
REMARK  status: ('A' for Active; 'I' for Inactive)
REMARK    1  A    between atoms: C_6  and  N_11
REMARK                            x       y       z     vdW  Elec       q    Type
REMARK                         _______ _______ _______ _____ _____    ______ ____
ROOT
ATOM      1  O   UNL     1      -0.521  -8.277   0.000  0.00  0.00    -0.265 OA
ATOM      2  C   UNL     1      -1.402  -7.063   0.000  0.00  0.00    +0.278 A 
ATOM      3  N   UNL     1      -2.894  -7.220   0.000  0.00  0.00    -0.309 N 
ATOM      4  H   UNL     1      -3.295  -8.120   0.000  0.00  0.00    +0.170 HD
ATOM      5  C   UNL     1      -3.776  -6.007   0.000  0.00  0.00    +0.098 A 
ATOM      9  C   UNL     1      -3.166  -4.636   0.000  0.00  0.00    +0.069 A 
ATOM     10  C   UNL     1      -1.674  -4.479   0.000  0.00  0.00    +0.075 A 
ATOM     11  N   UNL     1      -0.792  -3.266   0.000  0.00  0.00    -0.344 N 
ATOM     12  C   UNL     1       0.634  -3.729   0.000  0.00  0.00    +0.197 A 
ATOM     13  N   UNL     1       0.634  -5.229   0.000  0.00  0.00    -0.230 NA
ATOM     14  H   UNL     1      -1.256  -1.839   0.000  0.00  0.00    +0.167 HD
ATOM     15  C   UNL     1      -0.792  -5.693   0.000  0.00  0.00    +0.153 A 
ENDROOT
BRANCH   5   6
ATOM      6  N   UNL     1      -5.268  -6.163   0.000  0.00  0.00    -0.344 N 
ATOM      7  H   UNL     1      -5.668  -7.063   0.000  0.00  0.00    +0.144 HD
ATOM      8  H   UNL     1      -5.846  -5.367   0.000  0.00  0.00    +0.144 HD
ENDBRANCH   5   6
TORSDOF 1