REMARK  Name = 268242
REMARK  16 active torsions:
REMARK  status: ('A' for Active; 'I' for Inactive)
REMARK    1  A    between atoms: N_3  and  C_26
REMARK    2  A    between atoms: N_3  and  C_35
REMARK    3  A    between atoms: N_3  and  C_36
REMARK    4  A    between atoms: O_5  and  C_23
REMARK    5  A    between atoms: O_5  and  C_24
REMARK    6  A    between atoms: C_11  and  O_33
REMARK    7  A    between atoms: C_14  and  C_49
REMARK    8  A    between atoms: C_14  and  O_52
REMARK    9  A    between atoms: C_20  and  O_29
REMARK   10  A    between atoms: C_22  and  O_32
REMARK   11  A    between atoms: C_27  and  C_34
REMARK   12  A    between atoms: C_28  and  O_31
REMARK   13  A    between atoms: O_29  and  C_30
REMARK   14  A    between atoms: C_35  and  C_37
REMARK   15  A    between atoms: C_36  and  C_43
REMARK   16  A    between atoms: C_49  and  C_51
REMARK                            x       y       z     vdW  Elec       q    Type
REMARK                         _______ _______ _______ _____ _____    ______ ____
ROOT
ATOM      1 CL   UNL     1      10.493  11.559   0.000  0.00  0.00    -0.145 Cl
ATOM      2  H   UNL     1      11.823  11.559   0.000  0.00  0.00    +0.145 HD
ENDROOT
TORSDOF 0