REMARK  Name = 258812
REMARK  14 active torsions:
REMARK  status: ('A' for Active; 'I' for Inactive)
REMARK    1  A    between atoms: O_4  and  C_22
REMARK    2  A    between atoms: O_4  and  C_23
REMARK    3  A    between atoms: C_10  and  O_32
REMARK    4  A    between atoms: C_13  and  O_37
REMARK    5  A    between atoms: C_13  and  C_38
REMARK    6  A    between atoms: C_19  and  O_28
REMARK    7  A    between atoms: C_21  and  O_31
REMARK    8  A    between atoms: C_25  and  N_34
REMARK    9  A    between atoms: C_26  and  C_33
REMARK   10  A    between atoms: C_27  and  O_30
REMARK   11  A    between atoms: O_28  and  C_29
REMARK   12  A    between atoms: N_34  and  C_35
REMARK   13  A    between atoms: N_34  and  C_36
REMARK   14  A    between atoms: C_38  and  C_40
REMARK                            x       y       z     vdW  Elec       q    Type
REMARK                         _______ _______ _______ _____ _____    ______ ____
ROOT
ATOM      1 CL   UNL     1      -8.555 -11.551   0.000  0.00  0.00    -0.145 Cl
ATOM      2  H   UNL     1      -7.225 -11.551   0.000  0.00  0.00    +0.145 HD
ENDROOT
TORSDOF 0