REMARK  Name = 265473
REMARK  18 active torsions:
REMARK  status: ('A' for Active; 'I' for Inactive)
REMARK    1  A    between atoms: C_6  and  C_11
REMARK    2  A    between atoms: C_7  and  C_16
REMARK    3  A    between atoms: S_9  and  C_21
REMARK    4  A    between atoms: S_9  and  C_23
REMARK    5  A    between atoms: C_12  and  C_15
REMARK    6  A    between atoms: N_18  and  C_20
REMARK    7  A    between atoms: C_19  and  C_20
REMARK    8  A    between atoms: C_19  and  O_22
REMARK    9  A    between atoms: C_20  and  C_21
REMARK   10  A    between atoms: C_23  and  C_24
REMARK   11  A    between atoms: C_24  and  C_25
REMARK   12  A    between atoms: C_25  and  C_26
REMARK   13  A    between atoms: C_26  and  C_27
REMARK   14  A    between atoms: C_27  and  C_28
REMARK   15  A    between atoms: C_28  and  C_29
REMARK   16  A    between atoms: C_29  and  C_30
REMARK   17  A    between atoms: C_30  and  C_31
REMARK   18  A    between atoms: C_31  and  C_32
REMARK                            x       y       z     vdW  Elec       q    Type
REMARK                         _______ _______ _______ _____ _____    ______ ____
ROOT
ATOM     11  C   UNK A   0      -6.233  -7.856   0.000  0.00  0.00    +0.237 C 
ATOM     12  N   UNK A   1      -5.720  -9.265   0.000  0.00  0.00    -0.306 N 
ATOM     13  H   UNK A   1      -6.285 -10.072   0.000  0.00  0.00    +0.149 HD
ATOM     30  O   UNK A   0      -5.269  -6.707   0.000  0.00  0.00    -0.271 OA
ENDROOT
BRANCH  11  10
ATOM      9  C   UNK A   0      -8.224  -6.186   0.000  0.00  0.00    +0.020 C 
ATOM     10  C   UNK A   0      -7.711  -7.595   0.000  0.00  0.00    +0.068 C 
BRANCH   9   6
ATOM      1  O   UNK A   0     -14.132  -5.144   0.000  0.00  0.00    -0.247 OA
ATOM      2  C   UNK A   0     -12.655  -5.404   0.000  0.00  0.00    +0.327 A 
ATOM      3  N   UNK A   0     -11.691  -4.255   0.000  0.00  0.00    -0.275 N 
ATOM      4  H   UNK A   0     -12.028  -3.330   0.000  0.00  0.00    +0.173 HD
ATOM      5  C   UNK A   0     -10.214  -4.516   0.000  0.00  0.00    +0.261 A 
ATOM      6  C   UNK A   0      -9.701  -5.925   0.000  0.00  0.00    +0.059 A 
ATOM      7  C   UNK A   0     -10.665  -7.074   0.000  0.00  0.00    +0.030 A 
ATOM      8  C   UNK A   0     -10.152  -8.484   0.000  0.00  0.00    +0.064 C 
ATOM     31  O   UNK A   0      -9.250  -3.367   0.000  0.00  0.00    -0.267 OA
ATOM     32  N   UNK A   0     -12.142  -6.814   0.000  0.00  0.00    -0.311 N 
ATOM     33  H   UNK A   0     -13.106  -7.963   0.000  0.00  0.00    +0.170 HD
ENDBRANCH   9   6
ENDBRANCH  11  10
BRANCH  12  14
ATOM     14  C   UNK A   1      -4.220  -9.265   0.000  0.00  0.00    +0.108 C 
BRANCH  14  15
ATOM     15  C   UNK A   1      -3.470  -7.966   0.000  0.00  0.00    +0.093 C 
BRANCH  15  16
ATOM     16  S   UNK A   1      -4.434  -6.817   0.000  0.00  0.00    -0.159 S 
BRANCH  16  17
ATOM     17  C   UNK A   1      -3.922  -5.408   0.000  0.00  0.00    +0.069 C 
BRANCH  17  18
ATOM     18  C   UNK A   1      -2.444  -5.147   0.000  0.00  0.00    +0.011 C 
BRANCH  18  19
ATOM     19  C   UNK A   1      -1.931  -3.738   0.000  0.00  0.00    +0.001 C 
BRANCH  19  20
ATOM     20  C   UNK A   1      -0.454  -3.477   0.000  0.00  0.00    +0.000 C 
BRANCH  20  21
ATOM     21  C   UNK A   1       0.059  -2.068   0.000  0.00  0.00    +0.000 C 
BRANCH  21  22
ATOM     22  C   UNK A   1      -0.905  -0.918   0.000  0.00  0.00    -0.000 C 
BRANCH  22  23
ATOM     23  C   UNK A   1      -0.392   0.491   0.000  0.00  0.00    -0.000 C 
BRANCH  23  24
ATOM     24  C   UNK A   1       1.085   0.751   0.000  0.00  0.00    -0.000 C 
BRANCH  24  25
ATOM     25  C   UNK A   1       1.598   2.161   0.000  0.00  0.00    -0.003 C 
ATOM     26  C   UNK A   1       0.634   3.310   0.000  0.00  0.00    +0.004 C 
ENDBRANCH  24  25
ENDBRANCH  23  24
ENDBRANCH  22  23
ENDBRANCH  21  22
ENDBRANCH  20  21
ENDBRANCH  19  20
ENDBRANCH  18  19
ENDBRANCH  17  18
ENDBRANCH  16  17
ENDBRANCH  15  16
ENDBRANCH  14  15
BRANCH  14  27
ATOM     27  C   UNK A   1      -3.470 -10.564   0.000  0.00  0.00    +0.178 C 
BRANCH  27  28
ATOM     28  O   UNK A   1      -1.970 -10.564   0.000  0.00  0.00    -0.393 OA
ATOM     29  H   UNK A   1      -1.485 -11.404   0.000  0.00  0.00    +0.209 HD
ENDBRANCH  27  28
ENDBRANCH  14  27
ENDBRANCH  12  14
TORSDOF 16