REMARK  Name = 276299
REMARK  0 active torsions:
REMARK  status: ('A' for Active; 'I' for Inactive)
REMARK                            x       y       z     vdW  Elec       q    Type
REMARK                         _______ _______ _______ _____ _____    ______ ____
ROOT
ATOM      1  N   UNL     1     -14.349  -6.474   0.000  0.00  0.00    +0.000 N 
ATOM      2  H   UNL     1     -15.648  -5.724   0.000  0.00  0.00    +0.000 HD
ATOM      3  H   UNL     1     -14.349  -7.974   0.000  0.00  0.00    +0.000 HD
ATOM      4  C   UNL     1     -13.050  -5.724   0.000  0.00  0.00    +0.000 A 
ATOM      5  N   UNL     1     -13.050  -4.224   0.000  0.00  0.00    +0.000 N 
ATOM      6  H   UNL     1     -14.349  -3.474   0.000  0.00  0.00    +0.000 HD
ATOM      7  C   UNL     1     -11.751  -3.474   0.000  0.00  0.00    +0.000 A 
ATOM      8  C   UNL     1     -10.452  -4.224   0.000  0.00  0.00    +0.000 A 
ATOM      9  N   UNL     1      -9.153  -3.474   0.000  0.00  0.00    +1.000 N 
ATOM     10  C   UNL     1      -9.863  -2.025   0.000  0.00  0.00    +0.000 A 
ATOM     11 PT   UNL     1      -8.092  -4.534   0.000  0.00  0.00    +0.000 Pt
ATOM     12  S   UNL     1      -7.377  -3.216   0.000  0.00  0.00    +0.000 S 
ATOM     13  H   UNL     1      -8.022  -1.862   0.000  0.00  0.00    +0.000 HD
ATOM     14  C   UNL     1      -5.902  -3.490   0.000  0.00  0.00    +0.000 A 
ATOM     15  C   UNL     1      -5.706  -4.977   0.000  0.00  0.00    +0.000 A 
ATOM     16  C   UNL     1      -4.320  -5.551   0.000  0.00  0.00    +0.000 A 
ATOM     17  N   UNL     1      -4.593  -7.026   0.000  0.00  0.00    +0.000 N 
ATOM     18  H   UNL     1      -3.619  -8.166   0.000  0.00  0.00    +0.000 HD
ATOM     19  C   UNL     1      -6.093  -7.065   0.000  0.00  0.00    +0.000 A 
ATOM     20  N   UNL     1      -3.130  -4.638   0.000  0.00  0.00    +0.000 N 
ATOM     21  H   UNL     1      -1.744  -5.212   0.000  0.00  0.00    +0.000 HD
ATOM     22  C   UNL     1      -3.326  -3.150   0.000  0.00  0.00    +0.000 A 
ATOM     23  N   UNL     1      -2.136  -2.237   0.000  0.00  0.00    +0.000 N 
ATOM     24  H   UNL     1      -0.750  -2.811   0.000  0.00  0.00    +0.000 HD
ATOM     25  H   UNL     1      -2.332  -0.750   0.000  0.00  0.00    +0.000 HD
ATOM     26  N   UNL     1      -4.712  -2.576   0.000  0.00  0.00    +0.000 NA
ATOM     27  N   UNL     1      -7.060  -5.622   0.000  0.00  0.00    +1.000 N 
ATOM     28  S   UNL     1      -8.842  -5.833   0.000  0.00  0.00    +0.000 S 
ATOM     29  H   UNL     1      -8.137  -7.157   0.000  0.00  0.00    +0.000 HD
ATOM     30  C   UNL     1     -10.452  -5.724   0.000  0.00  0.00    +0.000 A 
ATOM     31  N   UNL     1     -11.363  -2.025   0.000  0.00  0.00    +0.000 N 
ATOM     32  H   UNL     1     -12.276  -0.835   0.000  0.00  0.00    +0.000 HD
ATOM     33  N   UNL     1     -11.751  -6.474   0.000  0.00  0.00    +0.000 NA
ENDROOT
TORSDOF 0