REMARK  Name = 267033
REMARK  6 active torsions:
REMARK  status: ('A' for Active; 'I' for Inactive)
REMARK    1  A    between atoms: C_2  and  C_7
REMARK    2  A    between atoms: C_5  and  C_8
REMARK    3  A    between atoms: C_9  and  C_17
REMARK    4  A    between atoms: C_14  and  O_20
REMARK    5  A    between atoms: O_20  and  C_21
REMARK    6  A    between atoms: C_21  and  C_23
REMARK                            x       y       z     vdW  Elec       q    Type
REMARK                         _______ _______ _______ _____ _____    ______ ____
ROOT
ATOM      1  C   UNL     1       0.016   6.243   0.000  0.00  0.00    +0.031 C 
ATOM      2  C   UNL     1       1.315   6.992   0.000  0.00  0.00    +0.014 C 
ATOM      3  C   UNL     1       2.614   6.242   0.000  0.00  0.00    +0.010 C 
ATOM      4  C   UNL     1       3.787   7.178   0.000  0.00  0.00    +0.047 C 
ATOM      5  C   UNL     1       3.453   8.640   0.000  0.00  0.00    +0.018 C 
ATOM      6  C   UNL     1       5.250   6.844   0.000  0.00  0.00    +0.188 C 
ATOM     11  C   UNL     1       5.900   5.492   0.000  0.00  0.00    +0.080 C 
ATOM     12  C   UNL     1       4.438   5.159   0.000  0.00  0.00    +0.157 C 
ATOM     13  O   UNL     1       3.787   3.807   0.000  0.00  0.00    -0.366 OA
ATOM     14  C   UNL     1       2.505   4.662   0.000  0.00  0.00    +0.128 C 
ATOM     15  O   UNL     1       1.138   5.529   0.000  0.00  0.00    -0.365 OA
ATOM     16  C   UNL     1       2.437   6.279   0.000  0.00  0.00    +0.199 C 
ATOM     17  C   UNL     1       2.502   7.738   0.000  0.00  0.00    +0.015 C 
ATOM     18  C   UNL     1       2.614   4.742   0.000  0.00  0.00    +0.148 C 
ATOM     19  C   UNL     1       1.315   3.993   0.000  0.00  0.00    +0.004 C 
ATOM     20  C   UNL     1       0.016   4.743   0.000  0.00  0.00    -0.074 C 
ATOM     21  C   UNL     1      -1.283   3.993   0.000  0.00  0.00    +0.039 C 
ENDROOT
BRANCH   6   7
ATOM      7  O   UNL     1       6.185   8.017   0.000  0.00  0.00    -0.461 OA
BRANCH   7   8
ATOM      8  C   UNL     1       7.607   7.539   0.000  0.00  0.00    +0.304 C 
ATOM      9  C   UNL     1       7.904   6.069   0.000  0.00  0.00    +0.136 C 
ATOM     10  O   UNL     1       8.731   8.531   0.000  0.00  0.00    -0.251 OA
ENDBRANCH   7   8
ENDBRANCH   6   7
TORSDOF 2