REMARK  Name = 265459
REMARK  0 active torsions:
REMARK  status: ('A' for Active; 'I' for Inactive)
REMARK                            x       y       z     vdW  Elec       q    Type
REMARK                         _______ _______ _______ _____ _____    ______ ____
ROOT
ATOM      1 CL   UNL     1       7.449   4.394   0.000  0.00  0.00    +0.000 Cl
ATOM      2 PT   UNL     1       6.334   3.390   0.000  0.00  0.00    +0.000 Pt
ATOM      3  N   UNL     1       5.453   4.604   0.000  0.00  0.00    +0.000 NA
ATOM      4  H   UNL     1       5.916   6.030   0.000  0.00  0.00    +0.000 HD
ATOM      5  C   UNL     1       4.026   4.140   0.000  0.00  0.00    +0.000 C 
ATOM      6  C   UNL     1       4.026   2.640   0.000  0.00  0.00    +0.000 C 
ATOM      7  C   UNL     1       2.727   1.890   0.000  0.00  0.00    +0.000 C 
ATOM      8  C   UNL     1       1.428   2.640   0.000  0.00  0.00    +0.000 C 
ATOM      9  C   UNL     1       1.428   4.140   0.000  0.00  0.00    +0.000 C 
ATOM     10  C   UNL     1       2.727   4.890   0.000  0.00  0.00    +0.000 C 
ATOM     11  N   UNL     1       5.453   2.177   0.000  0.00  0.00    +0.000 NA
ATOM     12  H   UNL     1       5.916   0.750   0.000  0.00  0.00    +0.000 HD
ATOM     13 CL   UNL     1       7.449   2.386   0.000  0.00  0.00    +0.000 Cl
ENDROOT
TORSDOF 0