REMARK  Name = 292147
REMARK  1 active torsions:
REMARK  status: ('A' for Active; 'I' for Inactive)
REMARK    1  A    between atoms: C_10  and  O_19
REMARK                            x       y       z     vdW  Elec       q    Type
REMARK                         _______ _______ _______ _____ _____    ______ ____
ROOT
ATOM      1  C   UNL     1       1.761   1.550   0.000  0.00  0.00    +0.001 A 
ATOM      2  C   UNL     1       1.918   0.058   0.000  0.00  0.00    +0.004 A 
ATOM      3  C   UNL     1       3.288  -0.552   0.000  0.00  0.00    +0.050 A 
ATOM      4  C   UNL     1       4.502   0.330   0.000  0.00  0.00    +0.135 A 
ATOM      5  N   UNL     1       5.969   0.018   0.000  0.00  0.00    -0.152 N 
ATOM      6  C   UNL     1       6.719  -1.281   0.000  0.00  0.00    +0.342 C 
ATOM      9  C   UNL     1       8.219  -1.281   0.000  0.00  0.00    +0.073 A 
ATOM     10  C   UNL     1       8.969  -2.580   0.000  0.00  0.00    +0.014 A 
ATOM     11  C   UNL     1      10.469  -2.580   0.000  0.00  0.00    +0.001 A 
ATOM     12  C   UNL     1      11.219  -1.281   0.000  0.00  0.00    +0.004 A 
ATOM     13  C   UNL     1      10.469   0.018   0.000  0.00  0.00    +0.056 A 
ATOM     14  C   UNL     1       8.969   0.018   0.000  0.00  0.00    +0.186 A 
ATOM     15  N   UNL     1       8.219   1.317   0.000  0.00  0.00    -0.037 NA
ATOM     16  C   UNL     1       6.719   1.317   0.000  0.00  0.00    +0.369 C 
ATOM     17  C   UNL     1       5.715   2.432   0.000  0.00  0.00    +0.280 C 
ATOM     18  O   UNL     1       6.027   3.899   0.000  0.00  0.00    -0.279 OA
ATOM     19  C   UNL     1       4.345   1.822   0.000  0.00  0.00    +0.075 A 
ATOM     20  C   UNL     1       2.974   2.432   0.000  0.00  0.00    +0.016 A 
ENDROOT
BRANCH   6   7
ATOM      7  O   UNL     1       5.969  -2.580   0.000  0.00  0.00    -0.352 OA
ATOM      8  H   UNL     1       4.999  -2.580   0.000  0.00  0.00    +0.214 HD
ENDBRANCH   6   7
TORSDOF 1