REMARK  Name = 273829
REMARK  14 active torsions:
REMARK  status: ('A' for Active; 'I' for Inactive)
REMARK    1  A    between atoms: C_4  and  N_21
REMARK    2  A    between atoms: C_9  and  N_24
REMARK    3  A    between atoms: C_11  and  C_32
REMARK    4  A    between atoms: C_12  and  N_23
REMARK    5  A    between atoms: C_17  and  N_22
REMARK    6  A    between atoms: C_19  and  C_33
REMARK    7  A    between atoms: N_23  and  C_28
REMARK    8  A    between atoms: N_24  and  C_25
REMARK    9  A    between atoms: C_25  and  C_31
REMARK   10  A    between atoms: C_26  and  C_29
REMARK   11  A    between atoms: C_26  and  C_31
REMARK   12  A    between atoms: C_27  and  C_29
REMARK   13  A    between atoms: C_27  and  C_30
REMARK   14  A    between atoms: C_28  and  C_30
REMARK                            x       y       z     vdW  Elec       q    Type
REMARK                         _______ _______ _______ _____ _____    ______ ____
ROOT
ATOM     17  C   UNL     1      -5.946  12.000   0.000  0.00  0.00    +0.000 C 
ENDROOT
BRANCH  17  16
ATOM     16  C   UNL     1      -7.245  11.250   0.000  0.00  0.00    +0.002 C 
BRANCH  16  15
ATOM     15  C   UNL     1      -7.245   9.750   0.000  0.00  0.00    +0.019 C 
BRANCH  15  14
ATOM     14  C   UNL     1      -8.544   9.000   0.000  0.00  0.00    +0.101 C 
BRANCH  14  12
ATOM     12  N   UNL     1      -8.544   7.500   0.000  0.00  0.00    -0.343 N 
ATOM     13  H   UNL     1      -9.397   7.008   0.000  0.00  0.00    +0.146 HD
BRANCH  12  11
ATOM      1  N   UNL     1      -4.647   5.250   0.000  0.00  0.00    -0.252 NA
ATOM      2  C   UNL     1      -5.946   4.500   0.000  0.00  0.00    +0.075 A 
ATOM      3  C   UNL     1      -5.946   3.000   0.000  0.00  0.00    +0.051 A 
ATOM      4  C   UNL     1      -7.245   2.250   0.000  0.00  0.00    +0.027 A 
ATOM      8  C   UNL     1      -8.544   3.000   0.000  0.00  0.00    +0.023 A 
ATOM      9  C   UNL     1      -8.544   4.500   0.000  0.00  0.00    +0.013 A 
ATOM     10  C   UNL     1      -7.245   5.250   0.000  0.00  0.00    +0.021 A 
ATOM     11  C   UNL     1      -7.245   6.750   0.000  0.00  0.00    +0.038 A 
ATOM     37  C   UNL     1      -5.946   7.500   0.000  0.00  0.00    +0.046 A 
ATOM     38  C   UNL     1      -4.647   6.750   0.000  0.00  0.00    +0.041 A 
ATOM     39  C   UNL     1      -3.348   7.500   0.000  0.00  0.00    +0.065 C 
BRANCH   4   5
ATOM      5  N   UNL     1      -7.245   0.750   0.000  0.00  0.00    -0.358 N 
ATOM      6  H   UNL     1      -6.393   0.258   0.000  0.00  0.00    +0.142 HD
ATOM      7  H   UNL     1      -8.098   0.258   0.000  0.00  0.00    +0.142 HD
ENDBRANCH   4   5
ENDBRANCH  12  11
ENDBRANCH  14  12
ENDBRANCH  15  14
ENDBRANCH  16  15
ENDBRANCH  17  16
BRANCH  17  18
ATOM     18  C   UNL     1      -5.946  13.500   0.000  0.00  0.00    +0.002 C 
BRANCH  18  19
ATOM     19  C   UNL     1      -4.647  14.250   0.000  0.00  0.00    +0.019 C 
BRANCH  19  20
ATOM     20  C   UNL     1      -4.647  15.750   0.000  0.00  0.00    +0.101 C 
BRANCH  20  21
ATOM     21  N   UNL     1      -3.348  16.500   0.000  0.00  0.00    -0.343 N 
ATOM     22  H   UNL     1      -2.495  16.008   0.000  0.00  0.00    +0.146 HD
BRANCH  21  23
ATOM     23  C   UNL     1      -3.348  18.000   0.000  0.00  0.00    +0.038 A 
ATOM     24  C   UNL     1      -2.049  18.750   0.000  0.00  0.00    +0.046 A 
ATOM     25  C   UNL     1      -2.049  20.250   0.000  0.00  0.00    +0.041 A 
ATOM     26  C   UNL     1      -0.750  21.000   0.000  0.00  0.00    +0.065 C 
ATOM     27  N   UNL     1      -3.348  21.000   0.000  0.00  0.00    -0.252 NA
ATOM     28  C   UNL     1      -4.647  20.250   0.000  0.00  0.00    +0.075 A 
ATOM     29  C   UNL     1      -5.946  21.000   0.000  0.00  0.00    +0.051 A 
ATOM     30  C   UNL     1      -7.245  20.250   0.000  0.00  0.00    +0.027 A 
ATOM     34  C   UNL     1      -7.245  18.750   0.000  0.00  0.00    +0.023 A 
ATOM     35  C   UNL     1      -5.946  18.000   0.000  0.00  0.00    +0.013 A 
ATOM     36  C   UNL     1      -4.647  18.750   0.000  0.00  0.00    +0.021 A 
BRANCH  30  31
ATOM     31  N   UNL     1      -8.544  21.000   0.000  0.00  0.00    -0.358 N 
ATOM     32  H   UNL     1      -9.397  20.508   0.000  0.00  0.00    +0.142 HD
ATOM     33  H   UNL     1      -8.544  21.984   0.000  0.00  0.00    +0.142 HD
ENDBRANCH  30  31
ENDBRANCH  21  23
ENDBRANCH  20  21
ENDBRANCH  19  20
ENDBRANCH  18  19
ENDBRANCH  17  18
TORSDOF 12