REMARK  Name = 100708
REMARK  9 active torsions:
REMARK  status: ('A' for Active; 'I' for Inactive)
REMARK    1  A    between atoms: C_6  and  C_23
REMARK    2  A    between atoms: C_8  and  C_23
REMARK    3  A    between atoms: C_14  and  C_23
REMARK    4  A    between atoms: C_16  and  C_25
REMARK    5  A    between atoms: C_17  and  C_19
REMARK    6  A    between atoms: C_23  and  O_24
REMARK    7  A    between atoms: C_25  and  N_26
REMARK    8  A    between atoms: N_26  and  C_27
REMARK    9  A    between atoms: N_26  and  C_28
REMARK                            x       y       z     vdW  Elec       q    Type
REMARK                         _______ _______ _______ _____ _____    ______ ____
ROOT
ATOM      5  C   UNL     1       8.250   4.647   0.000  0.00  0.00    +0.142 C 
ENDROOT
BRANCH   5   4
ATOM      1  C   UNL     1       8.250   9.147   0.000  0.00  0.00    +0.000 A 
ATOM      2  C   UNL     1       6.951   8.397   0.000  0.00  0.00    +0.000 A 
ATOM      3  C   UNL     1       6.951   6.897   0.000  0.00  0.00    +0.007 A 
ATOM      4  C   UNL     1       8.250   6.147   0.000  0.00  0.00    -0.007 A 
ATOM     28  C   UNL     1       9.549   6.897   0.000  0.00  0.00    +0.007 A 
ATOM     29  C   UNL     1       9.549   8.397   0.000  0.00  0.00    +0.000 A 
ENDBRANCH   5   4
BRANCH   5   8
ATOM      8  C   UNL     1       6.750   4.647   0.000  0.00  0.00    -0.003 A 
ATOM      9  C   UNL     1       6.000   3.348   0.000  0.00  0.00    -0.026 A 
ATOM     14  C   UNL     1       4.500   3.348   0.000  0.00  0.00    +0.017 A 
ATOM     15  C   UNL     1       3.750   4.647   0.000  0.00  0.00    +0.055 A 
ATOM     20  C   UNL     1       4.500   5.946   0.000  0.00  0.00    +0.013 A 
ATOM     21  C   UNL     1       6.000   5.946   0.000  0.00  0.00    +0.008 A 
BRANCH  15  16
ATOM     16  C   UNL     1       2.250   4.647   0.000  0.00  0.00    +0.417 C 
ATOM     17  F   UNL     1       2.250   3.147   0.000  0.00  0.00    -0.166 F 
ATOM     18  F   UNL     1       0.750   4.647   0.000  0.00  0.00    -0.166 F 
ATOM     19  F   UNL     1       2.250   6.147   0.000  0.00  0.00    -0.166 F 
ENDBRANCH  15  16
BRANCH   9  10
ATOM     10  C   UNL     1       6.750   2.049   0.000  0.00  0.00    +0.119 C 
BRANCH  10  11
ATOM     11  N   UNL     1       6.000   0.750   0.000  0.00  0.00    -0.304 NA
ATOM     12  C   UNL     1       4.500   0.750   0.000  0.00  0.00    +0.104 C 
ATOM     13  C   UNL     1       6.750  -0.549   0.000  0.00  0.00    +0.104 C 
ENDBRANCH  10  11
ENDBRANCH   9  10
ENDBRANCH   5   8
BRANCH   5  22
ATOM     22  C   UNL     1       9.750   4.647   0.000  0.00  0.00    -0.007 A 
ATOM     23  C   UNL     1      10.500   3.348   0.000  0.00  0.00    +0.007 A 
ATOM     24  C   UNL     1      12.000   3.348   0.000  0.00  0.00    +0.000 A 
ATOM     25  C   UNL     1      12.750   4.647   0.000  0.00  0.00    +0.000 A 
ATOM     26  C   UNL     1      12.000   5.946   0.000  0.00  0.00    +0.000 A 
ATOM     27  C   UNL     1      10.500   5.946   0.000  0.00  0.00    +0.007 A 
ENDBRANCH   5  22
BRANCH   5   6
ATOM      6  O   UNL     1       8.250   3.147   0.000  0.00  0.00    -0.375 OA
ATOM      7  H   UNL     1       7.410   2.662   0.000  0.00  0.00    +0.211 HD
ENDBRANCH   5   6
TORSDOF 7