REMARK  Name = 100729
REMARK  2 active torsions:
REMARK  status: ('A' for Active; 'I' for Inactive)
REMARK    1  A    between atoms: C_4  and  C_5
REMARK    2  A    between atoms: C_7  and  O_12
REMARK                            x       y       z     vdW  Elec       q    Type
REMARK                         _______ _______ _______ _____ _____    ______ ____
ROOT
ATOM      1  C   UNL     1       3.000   4.647   0.000  0.00  0.00    +0.017 A 
ATOM      2  C   UNL     1       3.750   3.348   0.000  0.00  0.00    +0.080 A 
ATOM      3  C   UNL     1       3.000   2.049   0.000  0.00  0.00    +0.129 A 
ATOM      6  C   UNL     1       1.500   2.049   0.000  0.00  0.00    +0.046 A 
ATOM      7  C   UNL     1       0.750   3.348   0.000  0.00  0.00    +0.004 A 
ATOM     13  C   UNL     1       1.500   4.647   0.000  0.00  0.00    +0.001 A 
ENDROOT
BRANCH   2   8
ATOM      8  C   UNL     1       5.250   3.348   0.000  0.00  0.00    +0.252 A 
ATOM      9  O   UNL     1       6.132   2.135   0.000  0.00  0.00    -0.423 OA
ATOM     10  C   UNL     1       7.558   2.598   0.000  0.00  0.00    +0.332 A 
ATOM     11  N   UNL     1       7.558   4.098   0.000  0.00  0.00    -0.116 NA
ATOM     12  N   UNL     1       6.132   4.562   0.000  0.00  0.00    -0.107 NA
ENDBRANCH   2   8
BRANCH   3   4
ATOM      4  O   UNL     1       3.750   0.750   0.000  0.00  0.00    -0.506 OA
ATOM      5  H   UNL     1       3.282  -0.061   0.000  0.00  0.00    +0.292 HD
ENDBRANCH   3   4
TORSDOF 2