REMARK  Name = 101777
REMARK  5 active torsions:
REMARK  status: ('A' for Active; 'I' for Inactive)
REMARK    1  A    between atoms: P_3  and  N_5
REMARK    2  A    between atoms: C_7  and  C_15
REMARK    3  A    between atoms: C_9  and  N_11
REMARK    4  A    between atoms: C_9  and  C_14
REMARK    5  A    between atoms: C_15  and  C_16
REMARK                            x       y       z     vdW  Elec       q    Type
REMARK                         _______ _______ _______ _____ _____    ______ ____
ROOT
ATOM      1  O   UNL     1      -6.666  -1.410   0.000  0.00  0.00    -0.289 OA
ATOM      2  C   UNL     1      -7.965  -2.160   0.000  0.00  0.00    +0.258 C 
ATOM      3  C   UNL     1      -7.965  -3.660   0.000  0.00  0.00    +0.270 C 
ATOM      4  C   UNL     1      -8.478  -5.069   0.000  0.00  0.00    +0.101 C 
ATOM      8  C   UNL     1      -6.666  -4.410   0.000  0.00  0.00    +0.258 C 
ATOM      9  O   UNL     1      -5.367  -3.660   0.000  0.00  0.00    -0.289 OA
ATOM     10  P   UNL     1      -5.367  -2.160   0.000  0.00  0.00    +0.411 P 
ATOM     16  O   UNL     1      -4.854  -0.750   0.000  0.00  0.00    -0.240 OA
ENDROOT
BRANCH   3   5
ATOM      5  N   UNL     1      -9.442  -3.399   0.000  0.00  0.00    +0.049 N 
ATOM      6  O   UNL     1     -10.406  -4.548   0.000  0.00  0.00    +0.035 OA
ATOM      7  O   UNL     1      -9.955  -1.990   0.000  0.00  0.00    -0.581 OA
ENDBRANCH   3   5
BRANCH  10  11
ATOM     11  N   UNL     1      -3.889  -2.420   0.000  0.00  0.00    -0.203 NA
ATOM     12  C   UNL     1      -2.740  -3.384   0.000  0.00  0.00    +0.082 C 
ATOM     15  C   UNL     1      -2.480  -1.907   0.000  0.00  0.00    +0.115 C 
BRANCH  12  13
ATOM     13  C   UNL     1      -2.227  -4.794   0.000  0.00  0.00    +0.017 C 
ATOM     14  C   UNL     1      -0.750  -5.054   0.000  0.00  0.00    +0.005 C 
ENDBRANCH  12  13
ENDBRANCH  10  11
TORSDOF 3