REMARK  Name = 102086
REMARK  6 active torsions:
REMARK  status: ('A' for Active; 'I' for Inactive)
REMARK    1  A    between atoms: C_3  and  N_10
REMARK    2  A    between atoms: C_6  and  N_7
REMARK    3  A    between atoms: N_10  and  C_11
REMARK    4  A    between atoms: C_11  and  N_13
REMARK    5  A    between atoms: N_13  and  C_14
REMARK    6  A    between atoms: C_14  and  C_15
REMARK                            x       y       z     vdW  Elec       q    Type
REMARK                         _______ _______ _______ _____ _____    ______ ____
ROOT
ATOM      1  C   UNL     1      -4.821  -3.650   0.000  0.00  0.00    +0.024 A 
ATOM      2  C   UNL     1      -3.522  -4.399   0.000  0.00  0.00    +0.039 A 
ATOM     12  C   UNL     1      -3.522  -5.899   0.000  0.00  0.00    +0.107 A 
ATOM     13  C   UNL     1      -4.821  -6.649   0.000  0.00  0.00    +0.275 A 
ATOM     17  C   UNL     1      -6.120  -5.899   0.000  0.00  0.00    +0.084 A 
ATOM     18  C   UNL     1      -6.120  -4.399   0.000  0.00  0.00    +0.008 A 
ENDROOT
BRANCH  13  14
ATOM     14  N   UNL     1      -4.821  -8.149   0.000  0.00  0.00    +0.080 N 
ATOM     15  O   UNL     1      -3.522  -8.899   0.000  0.00  0.00    +0.041 OA
ATOM     16  O   UNL     1      -6.120  -8.899   0.000  0.00  0.00    -0.576 OA
ENDBRANCH  13  14
BRANCH   2   3
ATOM      3  N   UNL     1      -2.223  -3.650   0.000  0.00  0.00    -0.297 N 
ATOM      4  H   UNL     1      -2.223  -2.665   0.000  0.00  0.00    +0.154 HD
BRANCH   3   5
ATOM      5  C   UNL     1      -0.924  -4.399   0.000  0.00  0.00    +0.135 C 
ATOM     11  S   UNL     1       0.375  -3.650   0.000  0.00  0.00    -0.019 S 
BRANCH   5   6
ATOM      6  N   UNL     1      -0.924  -5.899   0.000  0.00  0.00    -0.323 N 
ATOM      7  H   UNL     1      -1.777  -6.392   0.000  0.00  0.00    +0.148 HD
BRANCH   6   8
ATOM      8  C   UNL     1       0.375  -6.649   0.000  0.00  0.00    +0.130 C 
BRANCH   8   9
ATOM      9  C   UNL     1       1.674  -5.899   0.000  0.00  0.00    -0.016 C 
ATOM     10  C   UNL     1       1.674  -4.399   0.000  0.00  0.00    +0.005 C 
ENDBRANCH   8   9
ENDBRANCH   6   8
ENDBRANCH   5   6
ENDBRANCH   3   5
ENDBRANCH   2   3
TORSDOF 6