REMARK  Name = 100942
REMARK  6 active torsions:
REMARK  status: ('A' for Active; 'I' for Inactive)
REMARK    1  A    between atoms: C_2  and  S_11
REMARK    2  A    between atoms: C_5  and  N_7
REMARK    3  A    between atoms: C_8  and  C_10
REMARK    4  A    between atoms: S_11  and  N_14
REMARK    5  A    between atoms: S_15  and  C_16
REMARK    6  A    between atoms: S_15  and  C_17
REMARK                            x       y       z     vdW  Elec       q    Type
REMARK                         _______ _______ _______ _____ _____    ______ ____
ROOT
ATOM      1  C   UNL     1      -4.821  -5.149   0.000  0.00  0.00    +0.031 A 
ATOM      2  C   UNL     1      -3.522  -5.899   0.000  0.00  0.00    +0.113 A 
ATOM     10  C   UNL     1      -3.522  -7.399   0.000  0.00  0.00    +0.031 A 
ATOM     11  C   UNL     1      -4.821  -8.149   0.000  0.00  0.00    +0.025 A 
ATOM     12  C   UNL     1      -6.120  -7.399   0.000  0.00  0.00    +0.033 A 
ATOM     18  C   UNL     1      -6.120  -5.899   0.000  0.00  0.00    +0.025 A 
ENDROOT
BRANCH  12  13
ATOM     13  N   UNL     1      -7.419  -8.149   0.000  0.00  0.00    -0.286 N 
ATOM     14  H   UNL     1      -7.419  -9.134   0.000  0.00  0.00    +0.155 HD
ATOM     15  C   UNL     1      -8.718  -7.399   0.000  0.00  0.00    +0.214 C 
ATOM     16  C   UNL     1      -8.718  -5.899   0.000  0.00  0.00    +0.109 C 
ATOM     17  O   UNL     1     -10.017  -8.149   0.000  0.00  0.00    -0.276 OA
ENDBRANCH  12  13
BRANCH   2   3
ATOM      3  S   UNL     1      -2.223  -5.149   0.000  0.00  0.00    +0.104 S 
ATOM      8  O   UNL     1      -1.473  -6.449   0.000  0.00  0.00    -0.146 OA
ATOM      9  O   UNL     1      -2.973  -3.850   0.000  0.00  0.00    -0.146 OA
BRANCH   3   4
ATOM      4  N   UNL     1      -0.924  -4.399   0.000  0.00  0.00    -0.106 NA
ATOM      5  S   UNL     1       0.375  -5.149   0.000  0.00  0.00    -0.079 S 
ATOM      6  C   UNL     1       0.375  -6.649   0.000  0.00  0.00    +0.099 C 
ATOM      7  C   UNL     1       1.674  -4.399   0.000  0.00  0.00    +0.099 C 
ENDBRANCH   3   4
ENDBRANCH   2   3
TORSDOF 3