REMARK  Name = 103775
REMARK  3 active torsions:
REMARK  status: ('A' for Active; 'I' for Inactive)
REMARK    1  A    between atoms: C_7  and  C_11
REMARK    2  A    between atoms: C_8  and  C_9
REMARK    3  A    between atoms: N_13  and  N_14
REMARK                            x       y       z     vdW  Elec       q    Type
REMARK                         _______ _______ _______ _____ _____    ______ ____
ROOT
ATOM      1  N   UNL     1      -2.586  -0.058   0.000  0.00  0.00    -0.136 NA
ATOM      2  C   UNL     1      -1.141   0.347   0.000  0.00  0.00    +0.167 A 
ATOM     10  C   UNL     1      -0.310  -0.902   0.000  0.00  0.00    +0.092 A 
ATOM     16  S   UNL     1      -1.241  -2.078   0.000  0.00  0.00    +0.039 S 
ATOM     17  N   UNL     1      -2.647  -1.556   0.000  0.00  0.00    -0.109 NA
ENDROOT
BRANCH  10  11
ATOM     11  C   UNL     1       1.189  -0.963   0.000  0.00  0.00    +0.112 A 
ATOM     12  C   UNL     1       2.020  -2.212   0.000  0.00  0.00    +0.097 A 
ATOM     13  S   UNL     1       3.464  -1.807   0.000  0.00  0.00    +0.029 S 
ATOM     14  N   UNL     1       3.526  -0.308   0.000  0.00  0.00    -0.110 NA
ATOM     15  N   UNL     1       2.119   0.213   0.000  0.00  0.00    -0.141 NA
ENDBRANCH  10  11
BRANCH   2   3
ATOM      3  C   UNL     1      -0.620   1.753   0.000  0.00  0.00    +0.279 C 
ATOM      4  N   UNL     1      -1.577   2.908   0.000  0.00  0.00    -0.248 N 
ATOM      5  H   UNL     1      -1.234   3.831   0.000  0.00  0.00    +0.169 HD
ATOM      9  O   UNL     1       0.859   2.005   0.000  0.00  0.00    -0.267 OA
BRANCH   4   6
ATOM      6  N   UNL     1      -3.056   2.657   0.000  0.00  0.00    -0.254 NA
ATOM      7  H   UNL     1      -3.410   1.701   0.000  0.00  0.00    +0.140 HD
ATOM      8  H   UNL     1      -3.706   3.442   0.000  0.00  0.00    +0.140 HD
ENDBRANCH   4   6
ENDBRANCH   2   3
TORSDOF 3