REMARK  Name = 10427
REMARK  2 active torsions:
REMARK  status: ('A' for Active; 'I' for Inactive)
REMARK    1  A    between atoms: C_9  and  C_13
REMARK    2  A    between atoms: C_10  and  C_14
REMARK                            x       y       z     vdW  Elec       q    Type
REMARK                         _______ _______ _______ _____ _____    ______ ____
ROOT
ATOM      1  O   UNL     1       3.611   0.353   0.000  0.00  0.00    -0.461 OA
ATOM      2  C   UNL     1       2.111   0.353   0.000  0.00  0.00    +0.237 C 
ATOM      3  C   UNL     1       1.648  -1.074   0.000  0.00  0.00    +0.083 C 
ATOM      4  C   UNL     1       2.861  -1.956   0.000  0.00  0.00    +0.040 C 
ATOM      5  C   UNL     1       2.861  -3.455   0.000  0.00  0.00    +0.018 C 
ATOM     13  C   UNL     1       4.075  -1.074   0.000  0.00  0.00    +0.335 C 
ATOM     14  O   UNL     1       5.501  -1.537   0.000  0.00  0.00    -0.245 OA
ENDROOT
BRANCH   5   6
ATOM      6  C   UNL     1       1.562  -4.205   0.000  0.00  0.00    -0.025 A 
ATOM      7  C   UNL     1       0.263  -3.455   0.000  0.00  0.00    +0.008 A 
ATOM      8  C   UNL     1      -1.036  -4.205   0.000  0.00  0.00    +0.004 A 
ATOM      9  C   UNL     1      -1.036  -5.705   0.000  0.00  0.00    -0.050 A 
ATOM     10  C   UNL     1      -2.335  -6.455   0.000  0.00  0.00    +0.044 C 
ATOM     11  C   UNL     1       0.263  -6.455   0.000  0.00  0.00    +0.004 A 
ATOM     12  C   UNL     1       1.562  -5.705   0.000  0.00  0.00    +0.008 A 
ENDBRANCH   5   6
TORSDOF 1