REMARK  Name = 10416
REMARK  1 active torsions:
REMARK  status: ('A' for Active; 'I' for Inactive)
REMARK    1  A    between atoms: N_1  and  C_7
REMARK                            x       y       z     vdW  Elec       q    Type
REMARK                         _______ _______ _______ _____ _____    ______ ____
ROOT
ATOM      1  N   UNL     1       1.294  -7.514   0.000  0.00  0.00    -0.309 N 
ATOM      2  C   UNL     1      -0.133  -7.978   0.000  0.00  0.00    +0.055 A 
ATOM      3  C   UNL     1      -1.432  -7.228   0.000  0.00  0.00    +0.027 A 
ATOM      4  C   UNL     1      -2.731  -7.978   0.000  0.00  0.00    +0.002 A 
ATOM      5  C   UNL     1      -2.731  -9.478   0.000  0.00  0.00    +0.001 A 
ATOM      6  C   UNL     1      -1.432 -10.228   0.000  0.00  0.00    +0.010 A 
ATOM      7  C   UNL     1      -0.133  -9.478   0.000  0.00  0.00    +0.008 A 
ATOM      8  C   UNL     1       1.294  -9.941   0.000  0.00  0.00    +0.008 A 
ATOM      9  C   UNL     1       1.904 -11.312   0.000  0.00  0.00    +0.010 A 
ATOM     10  C   UNL     1       3.396 -11.469   0.000  0.00  0.00    +0.001 A 
ATOM     11  C   UNL     1       4.277 -10.255   0.000  0.00  0.00    +0.002 A 
ATOM     12  C   UNL     1       3.667  -8.885   0.000  0.00  0.00    +0.027 A 
ATOM     13  C   UNL     1       2.175  -8.728   0.000  0.00  0.00    +0.055 A 
ENDROOT
BRANCH   1  14
ATOM     14  C   UNL     1       1.757  -6.088   0.000  0.00  0.00    +0.047 A 
ATOM     15  C   UNL     1       0.753  -4.973   0.000  0.00  0.00    +0.026 A 
ATOM     16  C   UNL     1       1.217  -3.547   0.000  0.00  0.00    +0.002 A 
ATOM     17  C   UNL     1       2.684  -3.235   0.000  0.00  0.00    +0.000 A 
ATOM     18  C   UNL     1       3.688  -4.349   0.000  0.00  0.00    +0.002 A 
ATOM     19  C   UNL     1       3.224  -5.776   0.000  0.00  0.00    +0.026 A 
ENDBRANCH   1  14
TORSDOF 1