REMARK  Name = 105584
REMARK  16 active torsions:
REMARK  status: ('A' for Active; 'I' for Inactive)
REMARK    1  A    between atoms: C_4  and  C_7
REMARK    2  A    between atoms: C_5  and  C_30
REMARK    3  A    between atoms: C_7  and  C_25
REMARK    4  A    between atoms: C_8  and  O_21
REMARK    5  A    between atoms: C_9  and  O_17
REMARK    6  A    between atoms: C_10  and  C_12
REMARK    7  A    between atoms: C_12  and  O_13
REMARK    8  A    between atoms: O_13  and  C_14
REMARK    9  A    between atoms: C_14  and  C_16
REMARK   10  A    between atoms: O_17  and  C_18
REMARK   11  A    between atoms: C_18  and  C_20
REMARK   12  A    between atoms: O_21  and  C_22
REMARK   13  A    between atoms: C_22  and  C_24
REMARK   14  A    between atoms: C_25  and  O_26
REMARK   15  A    between atoms: O_26  and  C_27
REMARK   16  A    between atoms: C_27  and  C_29
REMARK                            x       y       z     vdW  Elec       q    Type
REMARK                         _______ _______ _______ _____ _____    ______ ____
ROOT
ATOM      1  O   UNL     1      -7.061  -3.387   0.000  0.00  0.00    -0.351 OA
ATOM      2  C   UNL     1      -8.360  -4.137   0.000  0.00  0.00    +0.201 C 
ATOM      8  C   UNL     1      -8.048  -5.604   0.000  0.00  0.00    +0.252 C 
ATOM     13  C   UNL     1      -6.556  -5.761   0.000  0.00  0.00    +0.259 C 
ATOM     18  C   UNL     1      -5.946  -4.391   0.000  0.00  0.00    +0.169 C 
ENDROOT
BRANCH  18  24
ATOM     24  C   UNL     1      -4.647  -5.141   0.000  0.00  0.00    -0.009 A 
ATOM     25  C   UNL     1      -4.647  -6.641   0.000  0.00  0.00    +0.007 A 
ATOM     26  C   UNL     1      -3.348  -7.391   0.000  0.00  0.00    +0.004 A 
ATOM     27  C   UNL     1      -2.049  -6.641   0.000  0.00  0.00    -0.050 A 
ATOM     28  C   UNL     1      -0.750  -7.391   0.000  0.00  0.00    +0.044 C 
ATOM     29  C   UNL     1      -2.049  -5.141   0.000  0.00  0.00    +0.004 A 
ATOM     30  C   UNL     1      -3.348  -4.391   0.000  0.00  0.00    +0.007 A 
ENDBRANCH  18  24
BRANCH   2   3
ATOM      3  C   UNL     1      -9.730  -3.527   0.000  0.00  0.00    +0.267 C 
BRANCH   3   4
ATOM      4  O   UNL     1      -9.887  -2.035   0.000  0.00  0.00    -0.462 OA
BRANCH   4   5
ATOM      5  C   UNL     1     -11.257  -1.425   0.000  0.00  0.00    +0.304 C 
ATOM      6  C   UNL     1     -12.471  -2.307   0.000  0.00  0.00    +0.136 C 
ATOM      7  O   UNL     1     -11.414   0.067   0.000  0.00  0.00    -0.251 OA
ENDBRANCH   4   5
ENDBRANCH   3   4
ENDBRANCH   2   3
BRANCH   8   9
ATOM      9  O   UNL     1      -9.052  -6.719   0.000  0.00  0.00    -0.455 OA
BRANCH   9  10
ATOM     10  C   UNL     1     -10.519  -6.407   0.000  0.00  0.00    +0.304 C 
ATOM     11  C   UNL     1     -10.983  -4.980   0.000  0.00  0.00    +0.136 C 
ATOM     12  O   UNL     1     -11.523  -7.522   0.000  0.00  0.00    -0.251 OA
ENDBRANCH   9  10
ENDBRANCH   8   9
BRANCH  13  14
ATOM     14  O   UNL     1      -5.806  -7.060   0.000  0.00  0.00    -0.454 OA
BRANCH  14  15
ATOM     15  C   UNL     1      -6.556  -8.359   0.000  0.00  0.00    +0.304 C 
ATOM     16  C   UNL     1      -5.806  -9.658   0.000  0.00  0.00    +0.136 C 
ATOM     17  O   UNL     1      -8.056  -8.359   0.000  0.00  0.00    -0.251 OA
ENDBRANCH  14  15
ENDBRANCH  13  14
BRANCH  18  19
ATOM     19  C   UNL     1      -5.064  -3.177   0.000  0.00  0.00    +0.275 C 
BRANCH  19  20
ATOM     20  O   UNL     1      -3.573  -3.334   0.000  0.00  0.00    -0.461 OA
BRANCH  20  21
ATOM     21  C   UNL     1      -2.691  -2.120   0.000  0.00  0.00    +0.304 C 
ATOM     22  C   UNL     1      -3.301  -0.750   0.000  0.00  0.00    +0.136 C 
ATOM     23  O   UNL     1      -1.199  -2.277   0.000  0.00  0.00    -0.251 OA
ENDBRANCH  20  21
ENDBRANCH  19  20
ENDBRANCH  18  19
TORSDOF 11