REMARK  Name = 10173
REMARK  8 active torsions:
REMARK  status: ('A' for Active; 'I' for Inactive)
REMARK    1  A    between atoms: C_6  and  O_12
REMARK    2  A    between atoms: C_7  and  C_16
REMARK    3  A    between atoms: C_9  and  O_14
REMARK    4  A    between atoms: O_12  and  C_13
REMARK    5  A    between atoms: O_14  and  C_15
REMARK    6  A    between atoms: C_16  and  O_18
REMARK    7  A    between atoms: O_18  and  C_19
REMARK    8  A    between atoms: C_19  and  C_20
REMARK                            x       y       z     vdW  Elec       q    Type
REMARK                         _______ _______ _______ _____ _____    ______ ____
ROOT
ATOM      1  O   UNL     1      -5.946  -0.750   0.000  0.00  0.00    -0.292 OA
ATOM      2  C   UNL     1      -5.946  -2.250   0.000  0.00  0.00    +0.164 C 
ATOM      3  C   UNL     1      -7.245  -3.000   0.000  0.00  0.00    +0.024 A 
ATOM      4  C   UNL     1      -8.544  -2.250   0.000  0.00  0.00    +0.061 A 
ATOM      5  C   UNL     1      -9.843  -3.000   0.000  0.00  0.00    +0.162 A 
ATOM      8  C   UNL     1      -9.843  -4.500   0.000  0.00  0.00    +0.162 A 
ATOM     11  C   UNL     1      -8.544  -5.250   0.000  0.00  0.00    +0.053 A 
ATOM     12  C   UNL     1      -7.245  -4.500   0.000  0.00  0.00    -0.032 A 
ATOM     13  C   UNL     1      -5.946  -5.250   0.000  0.00  0.00    +0.051 C 
ATOM     14  C   UNL     1      -4.647  -4.500   0.000  0.00  0.00    +0.109 C 
ATOM     20  C   UNL     1      -4.647  -3.000   0.000  0.00  0.00    +0.094 C 
ENDROOT
BRANCH   5   6
ATOM      6  O   UNL     1     -11.142  -2.250   0.000  0.00  0.00    -0.491 OA
ATOM      7  C   UNL     1     -12.441  -3.000   0.000  0.00  0.00    +0.277 C 
ENDBRANCH   5   6
BRANCH   8   9
ATOM      9  O   UNL     1     -11.142  -5.250   0.000  0.00  0.00    -0.491 OA
ATOM     10  C   UNL     1     -12.441  -4.500   0.000  0.00  0.00    +0.277 C 
ENDBRANCH   8   9
BRANCH  14  15
ATOM     15  C   UNL     1      -3.348  -5.250   0.000  0.00  0.00    +0.311 C 
ATOM     19  O   UNL     1      -2.049  -4.500   0.000  0.00  0.00    -0.251 OA
BRANCH  15  16
ATOM     16  O   UNL     1      -3.348  -6.750   0.000  0.00  0.00    -0.465 OA
BRANCH  16  17
ATOM     17  C   UNL     1      -2.049  -7.500   0.000  0.00  0.00    +0.229 C 
ATOM     18  C   UNL     1      -0.750  -6.750   0.000  0.00  0.00    +0.048 C 
ENDBRANCH  16  17
ENDBRANCH  15  16
ENDBRANCH  14  15
TORSDOF 5