REMARK  Name = 101653
REMARK  3 active torsions:
REMARK  status: ('A' for Active; 'I' for Inactive)
REMARK    1  A    between atoms: N_5  and  C_16
REMARK    2  A    between atoms: C_6  and  O_15
REMARK    3  A    between atoms: C_7  and  C_16
REMARK                            x       y       z     vdW  Elec       q    Type
REMARK                         _______ _______ _______ _____ _____    ______ ____
ROOT
ATOM      1  O   UNL     1      -2.973  -6.649   0.000  0.00  0.00    -0.262 OA
ATOM      2  C   UNL     1      -1.674  -7.399   0.000  0.00  0.00    +0.315 A 
ATOM      3  C   UNL     1      -0.375  -6.649   0.000  0.00  0.00    +0.204 A 
ATOM      6  C   UNL     1       0.924  -7.399   0.000  0.00  0.00    +0.079 A 
ATOM     14  N   UNL     1       0.924  -8.899   0.000  0.00  0.00    -0.345 N 
ATOM     15  H   UNL     1       2.223  -9.649   0.000  0.00  0.00    +0.167 HD
ATOM     16  C   UNL     1      -0.375  -9.649   0.000  0.00  0.00    +0.200 A 
ATOM     17  N   UNL     1      -1.674  -8.899   0.000  0.00  0.00    -0.196 NA
ENDROOT
BRANCH   3   4
ATOM      4  O   UNL     1      -0.375  -5.149   0.000  0.00  0.00    -0.501 OA
ATOM      5  H   UNL     1       0.436  -4.681   0.000  0.00  0.00    +0.292 HD
ENDBRANCH   3   4
BRANCH   6   7
ATOM      7  C   UNL     1       2.223  -6.649   0.000  0.00  0.00    +0.141 C 
BRANCH   7   8
ATOM      8  N   UNL     1       2.223  -5.149   0.000  0.00  0.00    -0.297 NA
ATOM      9  C   UNL     1       3.522  -4.399   0.000  0.00  0.00    +0.085 C 
ATOM     10  C   UNL     1       3.522  -2.900   0.000  0.00  0.00    +0.015 C 
ATOM     11  C   UNL     1       2.223  -2.150   0.000  0.00  0.00    +0.002 C 
ATOM     12  C   UNL     1       0.924  -2.900   0.000  0.00  0.00    +0.015 C 
ATOM     13  C   UNL     1       0.924  -4.399   0.000  0.00  0.00    +0.085 C 
ENDBRANCH   7   8
ENDBRANCH   6   7
TORSDOF 3