REMARK  Name = 103189
REMARK  3 active torsions:
REMARK  status: ('A' for Active; 'I' for Inactive)
REMARK    1  A    between atoms: C_6  and  C_19
REMARK    2  A    between atoms: C_12  and  C_21
REMARK    3  A    between atoms: C_13  and  C_15
REMARK                            x       y       z     vdW  Elec       q    Type
REMARK                         _______ _______ _______ _____ _____    ______ ____
ROOT
ATOM      1  O   UNL     1       6.151   4.417   0.000  0.00  0.00    -0.274 OA
ATOM      2  C   UNL     1       5.401   5.716   0.000  0.00  0.00    +0.237 C 
ATOM      3  C   UNL     1       3.901   5.716   0.000  0.00  0.00    +0.185 C 
ATOM      6  C   UNL     1       3.151   7.015   0.000  0.00  0.00    +0.019 C 
ATOM      7  C   UNL     1       2.401   5.716   0.000  0.00  0.00    +0.022 C 
ATOM      8  C   UNL     1       0.901   5.716   0.000  0.00  0.00    +0.094 C 
ATOM     13  C   UNL     1       0.151   7.015   0.000  0.00  0.00    +0.012 C 
ATOM     14  C   UNL     1       0.901   8.314   0.000  0.00  0.00    +0.001 C 
ATOM     15  C   UNL     1       2.401   8.314   0.000  0.00  0.00    +0.010 C 
ATOM     16  C   UNL     1       3.901   8.314   0.000  0.00  0.00    +0.185 C 
ATOM     19  C   UNL     1       5.401   8.314   0.000  0.00  0.00    +0.237 C 
ATOM     20  O   UNL     1       6.151   9.613   0.000  0.00  0.00    -0.274 OA
ATOM     21  N   UNL     1       6.151   7.015   0.000  0.00  0.00    -0.254 N 
ATOM     22  H   UNL     1       7.651   7.015   0.000  0.00  0.00    +0.158 HD
ENDROOT
BRANCH   8   9
ATOM      9  C   UNL     1       0.151   4.417   0.000  0.00  0.00    +0.393 C 
ATOM     10  F   UNL     1       1.450   3.667   0.000  0.00  0.00    -0.170 F 
ATOM     11  F   UNL     1      -0.599   3.118   0.000  0.00  0.00    -0.170 F 
ATOM     12  F   UNL     1      -1.148   5.167   0.000  0.00  0.00    -0.170 F 
ENDBRANCH   8   9
BRANCH   3   4
ATOM      4  C   UNL     1       3.151   4.417   0.000  0.00  0.00    +0.076 C 
ATOM      5  N   UNL     1       2.401   3.118   0.000  0.00  0.00    -0.196 NA
ENDBRANCH   3   4
BRANCH  16  17
ATOM     17  C   UNL     1       3.151   9.613   0.000  0.00  0.00    +0.076 C 
ATOM     18  N   UNL     1       2.401  10.912   0.000  0.00  0.00    -0.196 NA
ENDBRANCH  16  17
TORSDOF 3