REMARK  Name = 103331
REMARK  10 active torsions:
REMARK  status: ('A' for Active; 'I' for Inactive)
REMARK    1  A    between atoms: C_3  and  C_13
REMARK    2  A    between atoms: C_4  and  C_14
REMARK    3  A    between atoms: C_7  and  C_18
REMARK    4  A    between atoms: C_8  and  N_19
REMARK    5  A    between atoms: C_11  and  C_12
REMARK    6  A    between atoms: N_16  and  N_17
REMARK    7  A    between atoms: N_19  and  C_20
REMARK    8  A    between atoms: N_19  and  C_23
REMARK    9  A    between atoms: C_20  and  C_21
REMARK   10  A    between atoms: C_23  and  C_24
REMARK                            x       y       z     vdW  Elec       q    Type
REMARK                         _______ _______ _______ _____ _____    ______ ____
ROOT
ATOM      8  N   UNL     1     -11.438   1.189   0.000  0.00  0.00    -0.187 NA
ATOM      9  C   UNL     1     -10.139   1.939   0.000  0.00  0.00    +0.138 C 
ENDROOT
BRANCH   9  10
ATOM     10  C   UNL     1      -8.840   1.189   0.000  0.00  0.00    -0.005 A 
ATOM     11  C   UNL     1      -8.840  -0.311   0.000  0.00  0.00    +0.011 A 
ATOM     12  C   UNL     1      -7.541  -1.061   0.000  0.00  0.00    +0.024 A 
ATOM     13  C   UNL     1      -6.242  -0.311   0.000  0.00  0.00    +0.030 A 
ATOM     21  C   UNL     1      -6.242   1.189   0.000  0.00  0.00    +0.024 A 
ATOM     22  C   UNL     1      -7.541   1.939   0.000  0.00  0.00    +0.011 A 
BRANCH  13  14
ATOM     14  N   UNL     1      -4.943  -1.061   0.000  0.00  0.00    -0.328 N 
BRANCH  14  15
ATOM     15  C   UNL     1      -4.943  -2.561   0.000  0.00  0.00    +0.121 C 
BRANCH  15  16
ATOM     16  C   UNL     1      -6.242  -3.311   0.000  0.00  0.00    +0.127 C 
ATOM     17 CL   UNL     1      -7.541  -2.561   0.000  0.00  0.00    -0.124 Cl
ENDBRANCH  15  16
ENDBRANCH  14  15
BRANCH  14  18
ATOM     18  C   UNL     1      -3.644  -0.311   0.000  0.00  0.00    +0.121 C 
BRANCH  18  19
ATOM     19  C   UNL     1      -2.345  -1.061   0.000  0.00  0.00    +0.127 C 
ATOM     20 CL   UNL     1      -1.046  -0.311   0.000  0.00  0.00    -0.124 Cl
ENDBRANCH  18  19
ENDBRANCH  14  18
ENDBRANCH  13  14
ENDBRANCH   9  10
BRANCH   8   6
ATOM      5  C   UNL     1     -12.737   3.439   0.000  0.00  0.00    +0.272 C 
ATOM      6  N   UNL     1     -12.737   1.939   0.000  0.00  0.00    -0.202 N 
ATOM      7  H   UNL     1     -13.589   1.447   0.000  0.00  0.00    +0.178 HD
ATOM     23  O   UNL     1     -11.438   4.189   0.000  0.00  0.00    -0.268 OA
BRANCH   5   4
ATOM      1  N   UNL     1     -15.660   5.993   0.000  0.00  0.00    -0.249 NA
ATOM      2  C   UNL     1     -14.193   5.681   0.000  0.00  0.00    +0.058 A 
ATOM      3  C   UNL     1     -13.078   6.685   0.000  0.00  0.00    +0.067 C 
ATOM      4  C   UNL     1     -14.036   4.189   0.000  0.00  0.00    +0.098 A 
ATOM     24  S   UNL     1     -15.406   3.579   0.000  0.00  0.00    -0.067 S 
ATOM     25  C   UNL     1     -16.410   4.694   0.000  0.00  0.00    +0.076 A 
ATOM     26  C   UNL     1     -17.902   4.537   0.000  0.00  0.00    +0.073 C 
ENDBRANCH   5   4
ENDBRANCH   8   6
TORSDOF 8