REMARK  Name = 10428
REMARK  3 active torsions:
REMARK  status: ('A' for Active; 'I' for Inactive)
REMARK    1  A    between atoms: C_7  and  C_14
REMARK    2  A    between atoms: C_12  and  O_13
REMARK    3  A    between atoms: O_13  and  C_15
REMARK                            x       y       z     vdW  Elec       q    Type
REMARK                         _______ _______ _______ _____ _____    ______ ____
ROOT
ATOM      8  C   UNL     1       3.333   5.672   0.000  0.00  0.00    -0.024 A 
ATOM      9  C   UNL     1       4.083   4.373   0.000  0.00  0.00    +0.011 A 
ATOM     10  C   UNL     1       5.583   4.373   0.000  0.00  0.00    +0.046 A 
ATOM     11  C   UNL     1       6.333   5.672   0.000  0.00  0.00    +0.120 A 
ATOM     14  C   UNL     1       5.583   6.971   0.000  0.00  0.00    +0.046 A 
ATOM     15  C   UNL     1       4.083   6.971   0.000  0.00  0.00    +0.011 A 
ENDROOT
BRANCH   8   7
ATOM      1  C   UNL     1      -0.409   4.216   0.000  0.00  0.00    +0.083 C 
ATOM      2  C   UNL     1      -0.721   2.749   0.000  0.00  0.00    +0.237 C 
ATOM      3  O   UNL     1       0.578   1.999   0.000  0.00  0.00    -0.461 OA
ATOM      4  C   UNL     1       1.693   3.002   0.000  0.00  0.00    +0.335 C 
ATOM      5  O   UNL     1       3.160   2.691   0.000  0.00  0.00    -0.245 OA
ATOM      6  C   UNL     1       1.083   4.373   0.000  0.00  0.00    +0.040 C 
ATOM      7  C   UNL     1       1.833   5.672   0.000  0.00  0.00    +0.018 C 
ENDBRANCH   8   7
BRANCH  11  12
ATOM     12  O   UNL     1       7.833   5.672   0.000  0.00  0.00    -0.495 OA
ATOM     13  C   UNL     1       8.583   6.971   0.000  0.00  0.00    +0.277 C 
ENDBRANCH  11  12
TORSDOF 2