REMARK  Name = 107522
REMARK  14 active torsions:
REMARK  status: ('A' for Active; 'I' for Inactive)
REMARK    1  A    between atoms: O_1  and  C_21
REMARK    2  A    between atoms: O_1  and  C_23
REMARK    3  A    between atoms: N_2  and  C_27
REMARK    4  A    between atoms: N_2  and  C_30
REMARK    5  A    between atoms: O_3  and  C_6
REMARK    6  A    between atoms: O_3  and  C_11
REMARK    7  A    between atoms: C_7  and  N_31
REMARK    8  A    between atoms: C_14  and  C_30
REMARK    9  A    between atoms: C_16  and  O_18
REMARK   10  A    between atoms: C_16  and  C_19
REMARK   11  A    between atoms: C_19  and  C_20
REMARK   12  A    between atoms: C_20  and  C_21
REMARK   13  A    between atoms: C_23  and  C_27
REMARK   14  A    between atoms: C_24  and  C_28
REMARK                            x       y       z     vdW  Elec       q    Type
REMARK                         _______ _______ _______ _____ _____    ______ ____
ROOT
ATOM      4  N   UNL     1      -7.779  10.409   0.000  0.00  0.00    -0.292 N 
ATOM     22  C   UNL     1      -6.630   9.444   0.000  0.00  0.00    +0.249 C 
ATOM     23  O   UNL     1      -6.890   7.967   0.000  0.00  0.00    -0.273 OA
ENDROOT
BRANCH  22  24
ATOM     24  C   UNL     1      -5.220   9.957   0.000  0.00  0.00    +0.256 C 
ATOM     25 CL   UNL     1      -4.071   8.993   0.000  0.00  0.00    -0.094 Cl
ATOM     26 CL   UNL     1      -4.960  11.435   0.000  0.00  0.00    -0.094 Cl
ENDBRANCH  22  24
BRANCH   4   3
ATOM      3  C   UNL     1      -7.519  11.886   0.000  0.00  0.00    +0.149 C 
BRANCH   3   2
ATOM      2  C   UNL     1      -8.818  12.636   0.000  0.00  0.00    +0.251 C 
BRANCH   2   1
ATOM      1  O   UNL     1      -8.818  14.136   0.000  0.00  0.00    -0.463 OA
BRANCH   1  27
ATOM     27  C   UNL     1      -7.519  14.886   0.000  0.00  0.00    +0.308 C 
ATOM     28  O   UNL     1      -6.220  14.136   0.000  0.00  0.00    -0.251 OA
BRANCH  27  29
ATOM     29  C   UNL     1      -7.519  16.386   0.000  0.00  0.00    +0.132 C 
BRANCH  29  30
ATOM     30  C   UNL     1      -6.109  16.899   0.000  0.00  0.00    +0.131 C 
BRANCH  30  31
ATOM     31  C   UNL     1      -5.849  18.376   0.000  0.00  0.00    +0.305 C 
ATOM     34  O   UNL     1      -6.998  19.340   0.000  0.00  0.00    -0.251 OA
BRANCH  31  32
ATOM     32  O   UNL     1      -4.439  18.889   0.000  0.00  0.00    -0.481 OA
ATOM     33  H   UNL     1      -3.721  18.287   0.000  0.00  0.00    +0.295 HD
ENDBRANCH  31  32
ENDBRANCH  30  31
ENDBRANCH  29  30
ENDBRANCH  27  29
ENDBRANCH   1  27
ENDBRANCH   2   1
ENDBRANCH   3   2
ENDBRANCH   4   3
BRANCH   4   5
ATOM      5  C   UNL     1      -9.189   9.895   0.000  0.00  0.00    +0.143 C 
BRANCH   5   6
ATOM      6  C   UNL     1      -9.189   8.395   0.000  0.00  0.00    -0.030 A 
ATOM      7  C   UNL     1     -10.488   7.645   0.000  0.00  0.00    +0.009 A 
ATOM      8  C   UNL     1     -10.488   6.145   0.000  0.00  0.00    +0.046 A 
ATOM      9  C   UNL     1      -9.189   5.395   0.000  0.00  0.00    +0.128 A 
ATOM     10  C   UNL     1      -7.890   6.145   0.000  0.00  0.00    +0.046 A 
ATOM     21  C   UNL     1      -7.890   7.645   0.000  0.00  0.00    +0.009 A 
BRANCH   9  11
ATOM     11  O   UNL     1      -9.189   3.895   0.000  0.00  0.00    -0.456 OA
BRANCH  11  12
ATOM     12  C   UNL     1      -7.890   3.145   0.000  0.00  0.00    +0.129 A 
ATOM     13  C   UNL     1      -7.890   1.645   0.000  0.00  0.00    +0.053 A 
ATOM     14  C   UNL     1      -6.590   0.895   0.000  0.00  0.00    +0.088 A 
ATOM     15  C   UNL     1      -5.292   1.645   0.000  0.00  0.00    +0.273 A 
ATOM     19  C   UNL     1      -5.292   3.145   0.000  0.00  0.00    +0.088 A 
ATOM     20  C   UNL     1      -6.590   3.895   0.000  0.00  0.00    +0.053 A 
BRANCH  15  16
ATOM     16  N   UNL     1      -3.992   0.895   0.000  0.00  0.00    +0.080 N 
ATOM     17  O   UNL     1      -3.992  -0.605   0.000  0.00  0.00    +0.041 OA
ATOM     18  O   UNL     1      -2.693   1.645   0.000  0.00  0.00    -0.576 OA
ENDBRANCH  15  16
ENDBRANCH  11  12
ENDBRANCH   9  11
ENDBRANCH   5   6
ENDBRANCH   4   5
TORSDOF 14