REMARK  Name = 103770
REMARK  2 active torsions:
REMARK  status: ('A' for Active; 'I' for Inactive)
REMARK    1  A    between atoms: C_7  and  C_12
REMARK    2  A    between atoms: C_9  and  N_11
REMARK                            x       y       z     vdW  Elec       q    Type
REMARK                         _______ _______ _______ _____ _____    ______ ____
ROOT
ATOM      5  N   UNL     1      -0.468  -0.735   0.000  0.00  0.00    -0.263 N 
ATOM      6  H   UNL     1      -0.117  -1.654   0.000  0.00  0.00    +0.157 HD
ATOM      7  C   UNL     1       0.478   0.429   0.000  0.00  0.00    +0.270 C 
ATOM      8  O   UNL     1      -0.057   1.831   0.000  0.00  0.00    -0.268 OA
ENDROOT
BRANCH   5   4
ATOM      1  N   UNL     1      -4.110   0.608   0.000  0.00  0.00    -0.109 NA
ATOM      2  S   UNL     1      -4.347  -0.873   0.000  0.00  0.00    +0.030 S 
ATOM      3  C   UNL     1      -3.012  -1.556   0.000  0.00  0.00    +0.112 A 
ATOM      4  C   UNL     1      -1.949  -0.497   0.000  0.00  0.00    +0.156 A 
ATOM     14  N   UNL     1      -2.628   0.840   0.000  0.00  0.00    -0.126 NA
ENDBRANCH   5   4
BRANCH   7   9
ATOM      9  C   UNL     1       1.959   0.192   0.000  0.00  0.00    +0.156 A 
ATOM     10  C   UNL     1       2.638  -1.146   0.000  0.00  0.00    +0.101 A 
ATOM     11  S   UNL     1       4.120  -0.913   0.000  0.00  0.00    +0.029 S 
ATOM     12  N   UNL     1       4.357   0.568   0.000  0.00  0.00    -0.110 NA
ATOM     13  N   UNL     1       3.021   1.251   0.000  0.00  0.00    -0.136 NA
ENDBRANCH   7   9
TORSDOF 2