REMARK  Name = 102554
REMARK  2 active torsions:
REMARK  status: ('A' for Active; 'I' for Inactive)
REMARK    1  A    between atoms: C_14  and  C_20
REMARK    2  A    between atoms: C_15  and  C_20
REMARK                            x       y       z     vdW  Elec       q    Type
REMARK                         _______ _______ _______ _____ _____    ______ ____
ROOT
ATOM      1  O   UNL     1      -1.025   6.274   0.000  0.00  0.00    -0.252 OA
ATOM      2  C   UNL     1       0.275   5.524   0.000  0.00  0.00    +0.309 C 
ATOM      3  N   UNL     1       1.574   6.274   0.000  0.00  0.00    -0.269 N 
ATOM      4  C   UNL     1       2.873   5.524   0.000  0.00  0.00    +0.158 C 
ATOM     12  S   UNL     1       4.299   5.988   0.000  0.00  0.00    -0.114 S 
ATOM     13  C   UNL     1       5.181   4.774   0.000  0.00  0.00    +0.092 C 
ATOM     14  C   UNL     1       4.299   3.561   0.000  0.00  0.00    +0.123 C 
ATOM     15  N   UNL     1       2.873   4.024   0.000  0.00  0.00    -0.254 N 
ATOM     16  C   UNL     1       1.574   3.275   0.000  0.00  0.00    +0.312 C 
ATOM     17  O   UNL     1       1.574   1.775   0.000  0.00  0.00    -0.252 OA
ATOM     18  H   UNL     1       1.574   7.774   0.000  0.00  0.00    +0.153 HD
ATOM     19  N   UNL     1       0.275   4.024   0.000  0.00  0.00    -0.224 N 
ATOM     20  H   UNL     1      -1.025   3.275   0.000  0.00  0.00    +0.161 HD
ENDROOT
BRANCH   4   5
ATOM      5  C   UNL     1       3.029   7.016   0.000  0.00  0.00    +0.092 C 
BRANCH   5   6
ATOM      6  C   UNL     1       4.400   7.626   0.000  0.00  0.00    -0.043 A 
ATOM      7  C   UNL     1       4.556   9.118   0.000  0.00  0.00    +0.004 A 
ATOM      8  C   UNL     1       5.927   9.728   0.000  0.00  0.00    +0.000 A 
ATOM      9  C   UNL     1       7.140   8.847   0.000  0.00  0.00    +0.000 A 
ATOM     10  C   UNL     1       6.984   7.355   0.000  0.00  0.00    +0.000 A 
ATOM     11  C   UNL     1       5.613   6.745   0.000  0.00  0.00    +0.004 A 
ENDBRANCH   5   6
ENDBRANCH   4   5
TORSDOF 2