REMARK  Name = 10211
REMARK  3 active torsions:
REMARK  status: ('A' for Active; 'I' for Inactive)
REMARK    1  A    between atoms: N_1  and  C_7
REMARK    2  A    between atoms: C_5  and  C_20
REMARK    3  A    between atoms: C_20  and  O_22
REMARK                            x       y       z     vdW  Elec       q    Type
REMARK                         _______ _______ _______ _____ _____    ______ ____
ROOT
ATOM      1  N   UNL     1      -0.259  -7.170   0.000  0.00  0.00    -0.308 N 
ATOM      2  C   UNL     1      -1.472  -8.052   0.000  0.00  0.00    +0.055 A 
ATOM      3  C   UNL     1      -2.939  -7.740   0.000  0.00  0.00    +0.027 A 
ATOM      4  C   UNL     1      -3.943  -8.854   0.000  0.00  0.00    +0.002 A 
ATOM      5  C   UNL     1      -3.479 -10.281   0.000  0.00  0.00    +0.001 A 
ATOM      6  C   UNL     1      -2.012 -10.593   0.000  0.00  0.00    +0.010 A 
ATOM      7  C   UNL     1      -1.009  -9.478   0.000  0.00  0.00    +0.008 A 
ATOM      8  C   UNL     1       0.491  -9.478   0.000  0.00  0.00    +0.008 A 
ATOM      9  C   UNL     1       1.495 -10.593   0.000  0.00  0.00    +0.010 A 
ATOM     10  C   UNL     1       2.962 -10.281   0.000  0.00  0.00    +0.001 A 
ATOM     11  C   UNL     1       3.426  -8.854   0.000  0.00  0.00    +0.002 A 
ATOM     12  C   UNL     1       2.422  -7.740   0.000  0.00  0.00    +0.027 A 
ATOM     13  C   UNL     1       0.955  -8.052   0.000  0.00  0.00    +0.055 A 
ENDROOT
BRANCH   1  14
ATOM     14  C   UNL     1      -0.259  -4.695   0.000  0.00  0.00    +0.061 A 
ATOM     15  C   UNL     1      -1.558  -3.945   0.000  0.00  0.00    +0.027 A 
ATOM     16  C   UNL     1      -1.558  -2.445   0.000  0.00  0.00    +0.002 A 
ATOM     17  C   UNL     1      -0.259  -1.695   0.000  0.00  0.00    +0.001 A 
ATOM     18  C   UNL     1       1.040  -2.445   0.000  0.00  0.00    +0.017 A 
ATOM     19  C   UNL     1       1.040  -3.945   0.000  0.00  0.00    +0.083 A 
BRANCH  19  20
ATOM     20  C   UNL     1       2.340  -4.695   0.000  0.00  0.00    +0.339 C 
ATOM     23  O   UNL     1       2.340  -6.195   0.000  0.00  0.00    -0.245 OA
BRANCH  20  21
ATOM     21  O   UNL     1       3.639  -3.945   0.000  0.00  0.00    -0.477 OA
ATOM     22  H   UNL     1       4.450  -4.413   0.000  0.00  0.00    +0.295 HD
ENDBRANCH  20  21
ENDBRANCH  19  20
ENDBRANCH   1  14
TORSDOF 3