REMARK  Name = 105781
REMARK  5 active torsions:
REMARK  status: ('A' for Active; 'I' for Inactive)
REMARK    1  A    between atoms: C_4  and  C_21
REMARK    2  A    between atoms: C_6  and  C_24
REMARK    3  A    between atoms: C_10  and  C_23
REMARK    4  A    between atoms: C_19  and  O_20
REMARK    5  A    between atoms: O_20  and  C_21
REMARK                            x       y       z     vdW  Elec       q    Type
REMARK                         _______ _______ _______ _____ _____    ______ ____
ROOT
ATOM      1  N   UNL     1      -7.622  -7.213   0.000  0.00  0.00    -0.354 N 
ATOM      2  H   UNL     1      -8.085  -8.640   0.000  0.00  0.00    +0.166 HD
ATOM      3  C   UNL     1      -8.503  -6.000   0.000  0.00  0.00    +0.047 A 
ATOM      4  C   UNL     1      -9.995  -5.843   0.000  0.00  0.00    +0.026 A 
ATOM      5  C   UNL     1     -10.605  -4.473   0.000  0.00  0.00    +0.002 A 
ATOM      6  C   UNL     1      -9.723  -3.259   0.000  0.00  0.00    +0.001 A 
ATOM      7  C   UNL     1      -8.232  -3.416   0.000  0.00  0.00    +0.010 A 
ATOM      8  C   UNL     1      -7.622  -4.787   0.000  0.00  0.00    +0.008 A 
ATOM      9  C   UNL     1      -6.195  -5.250   0.000  0.00  0.00    +0.017 A 
ATOM     10  C   UNL     1      -4.896  -4.500   0.000  0.00  0.00    +0.024 A 
ATOM     11  C   UNL     1      -3.597  -5.250   0.000  0.00  0.00    +0.076 A 
ATOM     12  C   UNL     1      -3.597  -6.750   0.000  0.00  0.00    -0.023 A 
ATOM     13  C   UNL     1      -2.298  -7.500   0.000  0.00  0.00    +0.046 C 
ATOM     14  C   UNL     1      -4.896  -7.500   0.000  0.00  0.00    +0.031 A 
ATOM     15  N   UNL     1      -2.298  -4.500   0.000  0.00  0.00    -0.252 NA
ATOM     16  C   UNL     1      -2.298  -3.000   0.000  0.00  0.00    +0.040 A 
ATOM     17  C   UNL     1      -0.999  -2.250   0.000  0.00  0.00    +0.065 C 
ATOM     18  C   UNL     1      -3.597  -2.250   0.000  0.00  0.00    +0.038 A 
ATOM     19  C   UNL     1      -4.896  -3.000   0.000  0.00  0.00    +0.070 A 
ATOM     24  C   UNL     1      -6.195  -6.750   0.000  0.00  0.00    +0.048 A 
ENDROOT
BRANCH  19  20
ATOM     20  C   UNL     1      -6.195  -2.250   0.000  0.00  0.00    +0.340 C 
ATOM     21  O   UNL     1      -7.494  -3.000   0.000  0.00  0.00    -0.245 OA
BRANCH  20  22
ATOM     22  O   UNL     1      -6.195  -0.750   0.000  0.00  0.00    -0.464 OA
ATOM     23  C   UNL     1      -7.494   0.000   0.000  0.00  0.00    +0.280 C 
ENDBRANCH  20  22
ENDBRANCH  19  20
TORSDOF 2