REMARK  Name = 104969
REMARK  1 active torsions:
REMARK  status: ('A' for Active; 'I' for Inactive)
REMARK    1  A    between atoms: C_8  and  C_13
REMARK                            x       y       z     vdW  Elec       q    Type
REMARK                         _______ _______ _______ _____ _____    ______ ____
ROOT
ATOM      1  N   UNL     1       4.647   3.000   0.000  0.00  0.00    -0.268 N 
ATOM      2  C   UNL     1       5.946   2.250   0.000  0.00  0.00    +0.260 A 
ATOM      3  C   UNL     1       7.245   3.000   0.000  0.00  0.00    +0.110 A 
ATOM      4  C   UNL     1       7.245   4.500   0.000  0.00  0.00    +0.137 A 
ATOM      5 CL   UNL     1       8.544   5.250   0.000  0.00  0.00    -0.062 Cl
ATOM      6  N   UNL     1       5.946   5.250   0.000  0.00  0.00    -0.218 NA
ATOM      7  O   UNL     1       5.946   0.750   0.000  0.00  0.00    -0.267 OA
ATOM      8  C   UNL     1       3.348   2.250   0.000  0.00  0.00    +0.099 A 
ATOM      9  C   UNL     1       2.049   3.000   0.000  0.00  0.00    -0.034 A 
ATOM     10  C   UNL     1       0.750   2.250   0.000  0.00  0.00    +0.045 C 
ATOM     11  C   UNL     1       2.049   4.500   0.000  0.00  0.00    +0.008 A 
ATOM     12  C   UNL     1       3.348   5.250   0.000  0.00  0.00    +0.047 A 
ATOM     13  C   UNL     1       4.647   4.500   0.000  0.00  0.00    +0.142 A 
ENDROOT
TORSDOF 0