REMARK  Name = 100120
REMARK  3 active torsions:
REMARK  status: ('A' for Active; 'I' for Inactive)
REMARK    1  A    between atoms: N_6  and  C_14
REMARK    2  A    between atoms: C_13  and  C_18
REMARK    3  A    between atoms: C_15  and  N_19
REMARK                            x       y       z     vdW  Elec       q    Type
REMARK                         _______ _______ _______ _____ _____    ______ ____
ROOT
ATOM      1  N   UNL     1     -11.415  -0.237   0.000  0.00  0.00    -0.198 NA
ATOM      2  C   UNL     1     -10.805   1.133   0.000  0.00  0.00    +0.301 A 
ATOM      3  C   UNL     1      -9.313   1.290   0.000  0.00  0.00    +0.172 A 
ATOM      4  C   UNL     1      -8.431   0.077   0.000  0.00  0.00    +0.149 A 
ATOM      5  N   UNL     1      -7.005   0.540   0.000  0.00  0.00    -0.285 N 
ATOM     16  C   UNL     1      -7.005   2.040   0.000  0.00  0.00    +0.206 A 
ATOM     17  N   UNL     1      -9.041  -1.294   0.000  0.00  0.00    -0.330 N 
ATOM     18  H   UNL     1      -8.160  -2.507   0.000  0.00  0.00    +0.168 HD
ATOM     19  N   UNL     1      -8.431   2.504   0.000  0.00  0.00    -0.228 NA
ATOM     20  O   UNL     1     -11.687   2.347   0.000  0.00  0.00    -0.263 OA
ATOM     21  C   UNL     1     -10.533  -1.450   0.000  0.00  0.00    +0.202 A 
ENDROOT
BRANCH   5   6
ATOM      6  C   UNL     1      -5.791  -0.342   0.000  0.00  0.00    +0.050 A 
ATOM      7  C   UNL     1      -5.948  -1.833   0.000  0.00  0.00    +0.028 A 
ATOM      8  C   UNL     1      -4.734  -2.715   0.000  0.00  0.00    +0.025 A 
ATOM      9  C   UNL     1      -3.364  -2.105   0.000  0.00  0.00    +0.028 A 
ATOM     13  C   UNL     1      -3.207  -0.613   0.000  0.00  0.00    -0.028 A 
ATOM     14  C   UNL     1      -1.837  -0.003   0.000  0.00  0.00    +0.046 C 
ATOM     15  C   UNL     1      -4.421   0.269   0.000  0.00  0.00    +0.031 A 
BRANCH   9  10
ATOM     10  N   UNL     1      -2.151  -2.987   0.000  0.00  0.00    -0.358 N 
ATOM     11  H   UNL     1      -1.251  -2.586   0.000  0.00  0.00    +0.142 HD
ATOM     12  H   UNL     1      -2.254  -3.966   0.000  0.00  0.00    +0.142 HD
ENDBRANCH   9  10
ENDBRANCH   5   6
TORSDOF 2