REMARK  Name = 10091
REMARK  6 active torsions:
REMARK  status: ('A' for Active; 'I' for Inactive)
REMARK    1  A    between atoms: C_1  and  C_17
REMARK    2  A    between atoms: C_11  and  C_12
REMARK    3  A    between atoms: C_11  and  C_15
REMARK    4  A    between atoms: C_15  and  O_16
REMARK    5  A    between atoms: O_16  and  C_18
REMARK    6  A    between atoms: C_18  and  C_19
REMARK                            x       y       z     vdW  Elec       q    Type
REMARK                         _______ _______ _______ _____ _____    ______ ____
ROOT
ATOM      1  C   UNL     1       3.627   5.720   0.000  0.00  0.00    +0.001 A 
ATOM     11  C   UNL     1       2.135   5.563   0.000  0.00  0.00    +0.007 A 
ATOM     12  C   UNL     1       1.823   4.096   0.000  0.00  0.00    +0.047 A 
ATOM     13  C   UNL     1       0.397   3.632   0.000  0.00  0.00    +0.026 A 
ATOM     14  C   UNL     1      -0.718   4.636   0.000  0.00  0.00    +0.002 A 
ATOM     15  C   UNL     1      -0.406   6.103   0.000  0.00  0.00    +0.001 A 
ATOM     16  N   UNL     1       3.123   3.346   0.000  0.00  0.00    -0.360 N 
ATOM     17  H   UNL     1       3.279   1.854   0.000  0.00  0.00    +0.165 HD
ATOM     18  C   UNL     1       1.021   6.567   0.000  0.00  0.00    +0.010 A 
ATOM     19  C   UNL     1       4.237   4.350   0.000  0.00  0.00    +0.091 A 
ENDROOT
BRANCH   1   2
ATOM      2  C   UNL     1       4.377   7.019   0.000  0.00  0.00    +0.036 C 
ATOM      3  C   UNL     1       5.877   7.019   0.000  0.00  0.00    +0.136 C 
BRANCH   3   4
ATOM      4  C   UNL     1       6.627   8.318   0.000  0.00  0.00    +0.106 C 
ATOM      5  N   UNL     1       7.377   9.617   0.000  0.00  0.00    -0.191 NA
ENDBRANCH   3   4
BRANCH   3   6
ATOM      6  C   UNL     1       6.627   5.720   0.000  0.00  0.00    +0.350 C 
ATOM     10  O   UNL     1       5.877   4.421   0.000  0.00  0.00    -0.244 OA
BRANCH   6   7
ATOM      7  O   UNL     1       8.127   5.720   0.000  0.00  0.00    -0.461 OA
BRANCH   7   8
ATOM      8  C   UNL     1       8.877   7.019   0.000  0.00  0.00    +0.229 C 
ATOM      9  C   UNL     1       8.127   8.318   0.000  0.00  0.00    +0.048 C 
ENDBRANCH   7   8
ENDBRANCH   6   7
ENDBRANCH   3   6
ENDBRANCH   1   2
TORSDOF 5