REMARK  Name = 106045
REMARK  4 active torsions:
REMARK  status: ('A' for Active; 'I' for Inactive)
REMARK    1  A    between atoms: C_10  and  C_11
REMARK    2  A    between atoms: C_10  and  C_13
REMARK    3  A    between atoms: C_11  and  O_12
REMARK    4  A    between atoms: C_13  and  O_14
REMARK                            x       y       z     vdW  Elec       q    Type
REMARK                         _______ _______ _______ _____ _____    ______ ____
ROOT
ATOM      1  O   UNL     1      -4.295  -0.646   0.000  0.00  0.00    -0.357 OA
ATOM      2  C   UNL     1      -2.881  -1.144   0.000  0.00  0.00    +0.189 C 
ATOM      3  C   UNL     1      -2.917  -2.644   0.000  0.00  0.00    +0.091 C 
ATOM     10  N   UNL     1      -4.354  -3.072   0.000  0.00  0.00    -0.277 NA
ATOM     11  H   UNL     1      -4.852  -4.487   0.000  0.00  0.00    +0.125 HD
ATOM     12  C   UNL     1      -5.206  -1.838   0.000  0.00  0.00    +0.121 C 
ATOM     13  C   UNL     1      -6.117  -3.029   0.000  0.00  0.00    +0.051 C 
ATOM     14  C   UNL     1      -7.532  -2.531   0.000  0.00  0.00    +0.004 C 
ATOM     15  C   UNL     1      -7.496  -1.032   0.000  0.00  0.00    +0.004 C 
ATOM     16  C   UNL     1      -6.058  -0.603   0.000  0.00  0.00    +0.051 C 
ENDROOT
BRANCH   3   4
ATOM      4  C   UNL     1      -1.422  -2.523   0.000  0.00  0.00    +0.182 C 
BRANCH   4   5
ATOM      5  O   UNL     1      -0.779  -1.168   0.000  0.00  0.00    -0.393 OA
ATOM      6  H   UNL     1       0.188  -1.090   0.000  0.00  0.00    +0.209 HD
ENDBRANCH   4   5
ENDBRANCH   3   4
BRANCH   3   7
ATOM      7  C   UNL     1      -2.641  -4.118   0.000  0.00  0.00    +0.182 C 
BRANCH   7   8
ATOM      8  O   UNL     1      -1.226  -4.616   0.000  0.00  0.00    -0.393 OA
ATOM      9  H   UNL     1      -1.047  -5.569   0.000  0.00  0.00    +0.209 HD
ENDBRANCH   7   8
ENDBRANCH   3   7
TORSDOF 4