REMARK  Name = 101758
REMARK  6 active torsions:
REMARK  status: ('A' for Active; 'I' for Inactive)
REMARK    1  A    between atoms: C_3  and  O_9
REMARK    2  A    between atoms: C_4  and  N_10
REMARK    3  A    between atoms: C_5  and  O_17
REMARK    4  A    between atoms: C_6  and  O_7
REMARK    5  A    between atoms: O_7  and  C_8
REMARK    6  A    between atoms: C_11  and  C_13
REMARK                            x       y       z     vdW  Elec       q    Type
REMARK                         _______ _______ _______ _____ _____    ______ ____
ROOT
ATOM      1  O   UNL     1      -1.838  -2.120   0.000  0.00  0.00    -0.319 OA
ATOM      2  C   UNL     1      -2.517  -0.782   0.000  0.00  0.00    +0.281 C 
ATOM      5  C   UNL     1      -1.697   0.474   0.000  0.00  0.00    +0.172 C 
ATOM      8  C   UNL     1      -0.200   0.393   0.000  0.00  0.00    +0.063 C 
ATOM      9  C   UNL     1       0.479  -0.944   0.000  0.00  0.00    +0.132 C 
ATOM     18  C   UNL     1      -0.340  -2.201   0.000  0.00  0.00    +0.271 C 
ENDROOT
BRANCH   9  10
ATOM     10  N   UNL     1       1.977  -1.025   0.000  0.00  0.00    -0.300 N 
ATOM     11  H   UNL     1       2.422  -1.903   0.000  0.00  0.00    +0.149 HD
ATOM     12  C   UNL     1       2.796   0.231   0.000  0.00  0.00    +0.318 C 
ATOM     17  O   UNL     1       4.294   0.150   0.000  0.00  0.00    -0.266 OA
BRANCH  12  13
ATOM     13  C   UNL     1       2.117   1.569   0.000  0.00  0.00    +0.469 C 
ATOM     14  F   UNL     1       1.439   2.907   0.000  0.00  0.00    -0.162 F 
ATOM     15  F   UNL     1       3.455   2.248   0.000  0.00  0.00    -0.162 F 
ATOM     16  F   UNL     1       0.780   0.890   0.000  0.00  0.00    -0.162 F 
ENDBRANCH  12  13
ENDBRANCH   9  10
BRANCH   2   3
ATOM      3  O   UNL     1      -4.014  -0.701   0.000  0.00  0.00    -0.352 OA
ATOM      4  C   UNL     1      -4.693   0.636   0.000  0.00  0.00    +0.197 C 
ENDBRANCH   2   3
BRANCH   5   6
ATOM      6  O   UNL     1      -2.376   1.812   0.000  0.00  0.00    -0.387 OA
ATOM      7  H   UNL     1      -1.847   2.625   0.000  0.00  0.00    +0.210 HD
ENDBRANCH   5   6
BRANCH  18  19
ATOM     19  O   UNL     1       0.339  -3.539   0.000  0.00  0.00    -0.365 OA
ATOM     20  H   UNL     1      -0.191  -4.351   0.000  0.00  0.00    +0.213 HD
ENDBRANCH  18  19
TORSDOF 5