REMARK  Name = 101266
REMARK  5 active torsions:
REMARK  status: ('A' for Active; 'I' for Inactive)
REMARK    1  A    between atoms: N_1  and  C_16
REMARK    2  A    between atoms: C_6  and  N_11
REMARK    3  A    between atoms: C_7  and  C_10
REMARK    4  A    between atoms: N_14  and  C_15
REMARK    5  A    between atoms: C_15  and  C_16
REMARK                            x       y       z     vdW  Elec       q    Type
REMARK                         _______ _______ _______ _____ _____    ______ ____
ROOT
ATOM      4  N   UNL     1       0.433   2.943   0.000  0.00  0.00    -0.298 N 
ATOM      5  H   UNL     1      -0.339   3.554   0.000  0.00  0.00    +0.150 HD
ATOM      6  C   UNL     1       0.215   1.459   0.000  0.00  0.00    +0.304 C 
ATOM      7  O   UNL     1       1.391   0.528   0.000  0.00  0.00    -0.253 OA
ATOM      8  N   UNL     1      -1.180   0.906   0.000  0.00  0.00    -0.269 N 
ATOM      9  H   UNL     1      -1.951   1.517   0.000  0.00  0.00    +0.156 HD
ENDROOT
BRANCH   8  10
ATOM     10  C   UNL     1      -1.398  -0.578   0.000  0.00  0.00    +0.038 A 
ATOM     11  C   UNL     1      -2.793  -1.131   0.000  0.00  0.00    -0.029 A 
ATOM     12  C   UNL     1      -3.968  -0.199   0.000  0.00  0.00    +0.045 C 
ATOM     13  C   UNL     1      -3.011  -2.615   0.000  0.00  0.00    +0.005 A 
ATOM     14  C   UNL     1      -1.835  -3.546   0.000  0.00  0.00    +0.000 A 
ATOM     15  C   UNL     1      -0.441  -2.993   0.000  0.00  0.00    +0.002 A 
ATOM     16  C   UNL     1      -0.222  -1.509   0.000  0.00  0.00    +0.023 A 
ENDBRANCH   8  10
BRANCH   4   3
ATOM      3  C   UNL     1       1.828   3.496   0.000  0.00  0.00    +0.121 C 
BRANCH   3   2
ATOM      2  C   UNL     1       3.004   2.565   0.000  0.00  0.00    +0.103 C 
BRANCH   2   1
ATOM      1  N   UNL     1       2.785   1.081   0.000  0.00  0.00    -0.298 NA
ATOM     17  C   UNL     1       3.338  -0.314   0.000  0.00  0.00    +0.100 C 
ATOM     18  C   UNL     1       1.854  -0.095   0.000  0.00  0.00    +0.100 C 
ENDBRANCH   2   1
ENDBRANCH   3   2
ENDBRANCH   4   3
TORSDOF 4