REMARK  Name = 106461
REMARK  2 active torsions:
REMARK  status: ('A' for Active; 'I' for Inactive)
REMARK    1  A    between atoms: C_6  and  C_7
REMARK    2  A    between atoms: C_12  and  C_13
REMARK                            x       y       z     vdW  Elec       q    Type
REMARK                         _______ _______ _______ _____ _____    ______ ____
ROOT
ATOM      7  C   UNL     1      -7.195   3.953   0.000  0.00  0.00    +0.151 A 
ATOM      8  S   UNL     1      -5.728   3.641   0.000  0.00  0.00    -0.043 S 
ATOM      9  C   UNL     1      -5.571   2.150   0.000  0.00  0.00    +0.151 A 
ATOM     16  N   UNL     1      -6.941   1.539   0.000  0.00  0.00    -0.139 NA
ATOM     17  N   UNL     1      -7.945   2.654   0.000  0.00  0.00    -0.139 NA
ENDROOT
BRANCH   7   6
ATOM      1  N   UNL     1      -6.924   6.537   0.000  0.00  0.00    -0.253 NA
ATOM      2  C   UNL     1      -7.534   7.907   0.000  0.00  0.00    +0.111 A 
ATOM      3  C   UNL     1      -9.025   8.064   0.000  0.00  0.00    +0.020 A 
ATOM      4  C   UNL     1      -9.907   6.851   0.000  0.00  0.00    +0.004 A 
ATOM      5  C   UNL     1      -9.297   5.480   0.000  0.00  0.00    +0.030 A 
ATOM      6  C   UNL     1      -7.805   5.324   0.000  0.00  0.00    +0.098 A 
ENDBRANCH   7   6
BRANCH   9  10
ATOM     10  C   UNL     1      -4.272   1.400   0.000  0.00  0.00    +0.098 A 
ATOM     11  C   UNL     1      -4.272  -0.101   0.000  0.00  0.00    +0.030 A 
ATOM     12  C   UNL     1      -2.973  -0.851   0.000  0.00  0.00    +0.004 A 
ATOM     13  C   UNL     1      -1.674  -0.101   0.000  0.00  0.00    +0.020 A 
ATOM     14  C   UNL     1      -1.674   1.400   0.000  0.00  0.00    +0.111 A 
ATOM     15  N   UNL     1      -2.973   2.150   0.000  0.00  0.00    -0.253 NA
ENDBRANCH   9  10
TORSDOF 2